../pdbqt/decoy.vina_out.5.pdbqt
 OpenBabel06052021513D

 19 20  0  0  0  0  0  0  0  0999 V2000
  -26.0870   65.5660   25.5520 C   0  0  0  0  0  0  0  0  0  0  0  0
  -26.5260   66.0310   24.3660 C   0  0  0  0  0  0  0  0  0  0  0  0
  -27.8800   65.8000   23.9160 C   0  0  0  0  0  0  0  0  0  0  0  0
  -28.9640   65.6200   23.5510 N   0  0  0  0  0  0  0  0  0  0  0  0
  -25.6400   66.8580   23.5150 C   0  0  0  0  0  0  0  0  0  0  0  0
  -26.1310   67.7950   22.8260 O   0  0  0  0  0  0  0  0  0  0  0  0
  -24.2630   66.6050   23.4760 O   0  0  0  0  0  0  0  0  0  0  0  0
  -23.3730   66.9200   24.5460 C   0  0  0  0  0  0  0  0  0  0  0  0
  -22.5420   65.7010   24.9300 C   0  0  0  0  0  0  0  0  0  0  0  0
  -26.8690   64.7150   26.4780 C   0  0  0  0  0  0  0  0  0  0  0  0
  -28.2460   64.7250   26.7120 C   0  0  0  0  0  0  0  0  0  0  0  0
  -28.5890   63.7320   27.5630 N   0  0  0  0  0  0  0  0  0  0  0  0
  -29.5510   63.5020   27.8990 H   0  0  0  0  0  0  0  0  0  0  0  0
  -27.4510   63.0840   27.8590 C   0  0  0  0  0  0  0  0  0  0  0  0
  -27.3020   61.9720   28.6870 C   0  0  0  0  0  0  0  0  0  0  0  0
  -26.3820   63.6480   27.2080 C   0  0  0  0  0  0  0  0  0  0  0  0
  -26.0110   61.4370   28.8450 C   0  0  0  0  0  0  0  0  0  0  0  0
  -24.9100   62.0180   28.1780 C   0  0  0  0  0  0  0  0  0  0  0  0
  -25.0900   63.1380   27.3460 C   0  0  0  0  0  0  0  0  0  0  0  0
  1 10  1  0  0  0  0
  2  1  2  0  0  0  0
  3  2  1  0  0  0  0
  4  3  3  0  0  0  0
  5  2  1  0  0  0  0
  6  5  2  0  0  0  0
  7  5  1  0  0  0  0
  7  8  1  0  0  0  0
  8  9  1  0  0  0  0
 10 11  2  0  0  0  0
 10 16  1  0  0  0  0
 11 12  1  0  0  0  0
 12 14  1  0  0  0  0
 12 13  1  0  0  0  0
 14 15  2  0  0  0  0
 15 17  1  0  0  0  0
 16 19  2  0  0  0  0
 16 14  1  0  0  0  0
 18 17  2  0  0  0  0
 19 18  1  0  0  0  0
M  END
>  <MODEL>
1

>  <REMARK>
 VINA RESULT:      -8.4      0.000      0.000
  4 active torsions:
  status: ('A' for Active; 'I' for Inactive)
    1  A    between atoms: C1_1  and  C7_10 
    2  A    between atoms: C2_2  and  C4_5 
    3  A    between atoms: C4_5  and  O2_7 
    4  A    between atoms: O2_7  and  C5_8 

>  <TORSDO>
F 4

$$$$
../pdbqt/decoy.vina_out.5.pdbqt
 OpenBabel06052021513D

 19 20  0  0  0  0  0  0  0  0999 V2000
  -24.1180   65.4530   26.1670 C   0  0  0  0  0  0  0  0  0  0  0  0
  -23.2190   64.4610   26.0100 C   0  0  0  0  0  0  0  0  0  0  0  0
  -23.0250   63.8100   24.7340 C   0  0  0  0  0  0  0  0  0  0  0  0
  -22.8640   63.2870   23.7140 N   0  0  0  0  0  0  0  0  0  0  0  0
  -22.3500   64.0560   27.1380 C   0  0  0  0  0  0  0  0  0  0  0  0
  -21.3220   64.7350   27.4120 O   0  0  0  0  0  0  0  0  0  0  0  0
  -22.6680   62.9250   27.9020 O   0  0  0  0  0  0  0  0  0  0  0  0
  -23.8100   62.8450   28.7520 C   0  0  0  0  0  0  0  0  0  0  0  0
  -24.9350   62.0730   28.0710 C   0  0  0  0  0  0  0  0  0  0  0  0
  -25.0530   65.9310   25.1230 C   0  0  0  0  0  0  0  0  0  0  0  0
  -24.7690   66.6910   23.9860 C   0  0  0  0  0  0  0  0  0  0  0  0
  -25.8800   66.8460   23.2310 N   0  0  0  0  0  0  0  0  0  0  0  0
  -25.9520   67.3570   22.3230 H   0  0  0  0  0  0  0  0  0  0  0  0
  -26.8590   66.1810   23.8660 C   0  0  0  0  0  0  0  0  0  0  0  0
  -28.1850   66.0390   23.4600 C   0  0  0  0  0  0  0  0  0  0  0  0
  -26.3910   65.6020   25.0190 C   0  0  0  0  0  0  0  0  0  0  0  0
  -29.0450   65.2800   24.2740 C   0  0  0  0  0  0  0  0  0  0  0  0
  -28.5650   64.6850   25.4620 C   0  0  0  0  0  0  0  0  0  0  0  0
  -27.2200   64.8430   25.8460 C   0  0  0  0  0  0  0  0  0  0  0  0
  2  1  2  0  0  0  0
  2  5  1  0  0  0  0
  3  2  1  0  0  0  0
  4  3  3  0  0  0  0
  5  6  2  0  0  0  0
  5  7  1  0  0  0  0
  7  8  1  0  0  0  0
  9  8  1  0  0  0  0
 10  1  1  0  0  0  0
 11 10  2  0  0  0  0
 12 14  1  0  0  0  0
 12 11  1  0  0  0  0
 13 12  1  0  0  0  0
 14 16  1  0  0  0  0
 15 14  2  0  0  0  0
 15 17  1  0  0  0  0
 16 10  1  0  0  0  0
 16 19  2  0  0  0  0
 17 18  2  0  0  0  0
 18 19  1  0  0  0  0
M  END
>  <REMARK>
 VINA RESULT:      -8.3      2.971      5.286
  4 active torsions:
  status: ('A' for Active; 'I' for Inactive)
    1  A    between atoms: C1_1  and  C7_10 
    2  A    between atoms: C2_2  and  C4_5 
    3  A    between atoms: C4_5  and  O2_7 
    4  A    between atoms: O2_7  and  C5_8 

>  <TORSDO>
F 4

$$$$
../pdbqt/decoy.vina_out.5.pdbqt
 OpenBabel06052021513D

 19 20  0  0  0  0  0  0  0  0999 V2000
  -23.9820   65.9920   25.7300 C   0  0  0  0  0  0  0  0  0  0  0  0
  -22.9850   65.0890   25.6380 C   0  0  0  0  0  0  0  0  0  0  0  0
  -22.9630   64.0900   24.5940 C   0  0  0  0  0  0  0  0  0  0  0  0
  -22.9390   63.2880   23.7590 N   0  0  0  0  0  0  0  0  0  0  0  0
  -21.8400   65.1430   26.5750 C   0  0  0  0  0  0  0  0  0  0  0  0
  -21.3010   64.0710   26.9670 O   0  0  0  0  0  0  0  0  0  0  0  0
  -21.3530   66.3780   27.0220 O   0  0  0  0  0  0  0  0  0  0  0  0
  -20.3970   67.1560   26.3020 C   0  0  0  0  0  0  0  0  0  0  0  0
  -21.0510   68.4020   25.7140 C   0  0  0  0  0  0  0  0  0  0  0  0
  -25.1840   66.0270   24.8670 C   0  0  0  0  0  0  0  0  0  0  0  0
  -25.3160   66.5580   23.5820 C   0  0  0  0  0  0  0  0  0  0  0  0
  -26.5520   66.3120   23.0920 N   0  0  0  0  0  0  0  0  0  0  0  0
  -26.9160   66.5850   22.1520 H   0  0  0  0  0  0  0  0  0  0  0  0
  -27.1990   65.6190   24.0420 C   0  0  0  0  0  0  0  0  0  0  0  0
  -28.5010   65.1230   23.9880 C   0  0  0  0  0  0  0  0  0  0  0  0
  -26.3950   65.4170   25.1360 C   0  0  0  0  0  0  0  0  0  0  0  0
  -28.9790   64.4040   25.0980 C   0  0  0  0  0  0  0  0  0  0  0  0
  -28.1530   64.1970   26.2250 C   0  0  0  0  0  0  0  0  0  0  0  0
  -26.8410   64.7070   26.2510 C   0  0  0  0  0  0  0  0  0  0  0  0
  2  1  2  0  0  0  0
  2  5  1  0  0  0  0
  3  2  1  0  0  0  0
  4  3  3  0  0  0  0
  5  6  2  0  0  0  0
  5  7  1  0  0  0  0
  8  7  1  0  0  0  0
  9  8  1  0  0  0  0
 10 16  1  0  0  0  0
 10  1  1  0  0  0  0
 11 10  2  0  0  0  0
 12 11  1  0  0  0  0
 12 14  1  0  0  0  0
 13 12  1  0  0  0  0
 14 16  1  0  0  0  0
 15 14  2  0  0  0  0
 15 17  1  0  0  0  0
 16 19  2  0  0  0  0
 17 18  2  0  0  0  0
 18 19  1  0  0  0  0
M  END
>  <REMARK>
 VINA RESULT:      -8.0      3.025      4.669
  4 active torsions:
  status: ('A' for Active; 'I' for Inactive)
    1  A    between atoms: C1_1  and  C7_10 
    2  A    between atoms: C2_2  and  C4_5 
    3  A    between atoms: C4_5  and  O2_7 
    4  A    between atoms: O2_7  and  C5_8 

>  <TORSDO>
F 4

$$$$
../pdbqt/decoy.vina_out.5.pdbqt
 OpenBabel06052021513D

 19 20  0  0  0  0  0  0  0  0999 V2000
  -23.9110   66.3610   24.4180 C   0  0  0  0  0  0  0  0  0  0  0  0
  -25.2410   66.1940   24.5640 C   0  0  0  0  0  0  0  0  0  0  0  0
  -25.7930   65.4110   25.6460 C   0  0  0  0  0  0  0  0  0  0  0  0
  -26.2400   64.7870   26.5130 N   0  0  0  0  0  0  0  0  0  0  0  0
  -26.1820   66.8740   23.6460 C   0  0  0  0  0  0  0  0  0  0  0  0
  -25.9440   68.0540   23.2660 O   0  0  0  0  0  0  0  0  0  0  0  0
  -27.3320   66.2110   23.1970 O   0  0  0  0  0  0  0  0  0  0  0  0
  -28.6280   66.4150   23.7580 C   0  0  0  0  0  0  0  0  0  0  0  0
  -29.2140   65.0960   24.2520 C   0  0  0  0  0  0  0  0  0  0  0  0
  -22.8740   65.7180   25.2580 C   0  0  0  0  0  0  0  0  0  0  0  0
  -22.3120   66.1820   26.4490 C   0  0  0  0  0  0  0  0  0  0  0  0
  -21.4620   65.2630   26.9610 N   0  0  0  0  0  0  0  0  0  0  0  0
  -20.9160   65.3430   27.8480 H   0  0  0  0  0  0  0  0  0  0  0  0
  -21.4900   64.2180   26.1180 C   0  0  0  0  0  0  0  0  0  0  0  0
  -20.7890   63.0190   26.2360 C   0  0  0  0  0  0  0  0  0  0  0  0
  -22.3470   64.4540   25.0730 C   0  0  0  0  0  0  0  0  0  0  0  0
  -20.9810   62.0440   25.2400 C   0  0  0  0  0  0  0  0  0  0  0  0
  -21.8610   62.2870   24.1620 C   0  0  0  0  0  0  0  0  0  0  0  0
  -22.5580   63.5060   24.0710 C   0  0  0  0  0  0  0  0  0  0  0  0
  1  2  2  0  0  0  0
  1 10  1  0  0  0  0
  2  3  1  0  0  0  0
  3  4  3  0  0  0  0
  5  2  1  0  0  0  0
  6  5  2  0  0  0  0
  7  5  1  0  0  0  0
  7  8  1  0  0  0  0
  8  9  1  0  0  0  0
 10 11  2  0  0  0  0
 11 12  1  0  0  0  0
 12 13  1  0  0  0  0
 14 15  1  0  0  0  0
 14 12  1  0  0  0  0
 16 10  1  0  0  0  0
 16 14  2  0  0  0  0
 17 15  2  0  0  0  0
 18 17  1  0  0  0  0
 19 18  2  0  0  0  0
 19 16  1  0  0  0  0
M  END
>  <REMARK>
 VINA RESULT:      -7.9      2.774      4.822
  4 active torsions:
  status: ('A' for Active; 'I' for Inactive)
    1  A    between atoms: C1_1  and  C7_10 
    2  A    between atoms: C2_2  and  C4_5 
    3  A    between atoms: C4_5  and  O2_7 
    4  A    between atoms: O2_7  and  C5_8 

>  <TORSDO>
F 4

$$$$
../pdbqt/decoy.vina_out.5.pdbqt
 OpenBabel06052021513D

 19 20  0  0  0  0  0  0  0  0999 V2000
  -23.9750   66.0320   25.6830 C   0  0  0  0  0  0  0  0  0  0  0  0
  -22.9120   65.5590   25.0030 C   0  0  0  0  0  0  0  0  0  0  0  0
  -22.9170   64.2410   24.4100 C   0  0  0  0  0  0  0  0  0  0  0  0
  -22.9160   63.1870   23.9310 N   0  0  0  0  0  0  0  0  0  0  0  0
  -21.7240   66.4160   24.7870 C   0  0  0  0  0  0  0  0  0  0  0  0
  -20.6460   65.9000   24.3780 O   0  0  0  0  0  0  0  0  0  0  0  0
  -21.7940   67.7930   25.0310 O   0  0  0  0  0  0  0  0  0  0  0  0
  -20.7790   68.5240   25.7180 C   0  0  0  0  0  0  0  0  0  0  0  0
  -20.9200   68.3520   27.2270 C   0  0  0  0  0  0  0  0  0  0  0  0
  -25.2080   65.2660   25.9800 C   0  0  0  0  0  0  0  0  0  0  0  0
  -25.4620   64.4140   27.0560 C   0  0  0  0  0  0  0  0  0  0  0  0
  -26.7400   63.9750   27.0210 N   0  0  0  0  0  0  0  0  0  0  0  0
  -27.2000   63.3380   27.7090 H   0  0  0  0  0  0  0  0  0  0  0  0
  -27.3030   64.5490   25.9460 C   0  0  0  0  0  0  0  0  0  0  0  0
  -28.6190   64.4120   25.5060 C   0  0  0  0  0  0  0  0  0  0  0  0
  -26.4030   65.3520   25.2910 C   0  0  0  0  0  0  0  0  0  0  0  0
  -29.0060   65.1240   24.3570 C   0  0  0  0  0  0  0  0  0  0  0  0
  -28.0800   65.9480   23.6800 C   0  0  0  0  0  0  0  0  0  0  0  0
  -26.7590   66.0690   24.1480 C   0  0  0  0  0  0  0  0  0  0  0  0
  1 10  1  0  0  0  0
  2  1  2  0  0  0  0
  3  2  1  0  0  0  0
  4  3  3  0  0  0  0
  5  2  1  0  0  0  0
  5  7  1  0  0  0  0
  6  5  2  0  0  0  0
  7  8  1  0  0  0  0
  8  9  1  0  0  0  0
 10 11  2  0  0  0  0
 12 11  1  0  0  0  0
 12 13  1  0  0  0  0
 14 12  1  0  0  0  0
 15 14  1  0  0  0  0
 16 14  2  0  0  0  0
 16 10  1  0  0  0  0
 17 15  2  0  0  0  0
 18 19  2  0  0  0  0
 18 17  1  0  0  0  0
 19 16  1  0  0  0  0
M  END
>  <REMARK>
 VINA RESULT:      -7.9      2.469      4.297
  4 active torsions:
  status: ('A' for Active; 'I' for Inactive)
    1  A    between atoms: C1_1  and  C7_10 
    2  A    between atoms: C2_2  and  C4_5 
    3  A    between atoms: C4_5  and  O2_7 
    4  A    between atoms: O2_7  and  C5_8 

>  <TORSDO>
F 4

$$$$
../pdbqt/decoy.vina_out.5.pdbqt
 OpenBabel06052021513D

 19 20  0  0  0  0  0  0  0  0999 V2000
  -23.0860   65.9000   25.6120 C   0  0  0  0  0  0  0  0  0  0  0  0
  -22.1430   65.2280   24.9220 C   0  0  0  0  0  0  0  0  0  0  0  0
  -22.4360   63.9760   24.2600 C   0  0  0  0  0  0  0  0  0  0  0  0
  -22.6660   62.9760   23.7260 N   0  0  0  0  0  0  0  0  0  0  0  0
  -20.7850   65.7960   24.7660 C   0  0  0  0  0  0  0  0  0  0  0  0
  -20.5680   66.9970   25.0910 O   0  0  0  0  0  0  0  0  0  0  0  0
  -19.7430   65.0050   24.2650 O   0  0  0  0  0  0  0  0  0  0  0  0
  -19.1310   65.2200   22.9940 C   0  0  0  0  0  0  0  0  0  0  0  0
  -19.3150   64.0010   22.0960 C   0  0  0  0  0  0  0  0  0  0  0  0
  -24.4680   65.4250   25.8520 C   0  0  0  0  0  0  0  0  0  0  0  0
  -24.9450   64.6350   26.9010 C   0  0  0  0  0  0  0  0  0  0  0  0
  -26.2870   64.4940   26.8150 N   0  0  0  0  0  0  0  0  0  0  0  0
  -26.9020   63.9670   27.4730 H   0  0  0  0  0  0  0  0  0  0  0  0
  -26.6680   65.1960   25.7360 C   0  0  0  0  0  0  0  0  0  0  0  0
  -27.9640   65.3650   25.2520 C   0  0  0  0  0  0  0  0  0  0  0  0
  -25.5880   65.7860   25.1280 C   0  0  0  0  0  0  0  0  0  0  0  0
  -28.1410   66.1620   24.1070 C   0  0  0  0  0  0  0  0  0  0  0  0
  -27.0310   66.7680   23.4790 C   0  0  0  0  0  0  0  0  0  0  0  0
  -25.7330   66.5830   23.9910 C   0  0  0  0  0  0  0  0  0  0  0  0
  1 10  1  0  0  0  0
  2  1  2  0  0  0  0
  3  2  1  0  0  0  0
  4  3  3  0  0  0  0
  5  2  1  0  0  0  0
  5  6  2  0  0  0  0
  7  5  1  0  0  0  0
  8  7  1  0  0  0  0
  9  8  1  0  0  0  0
 10 11  2  0  0  0  0
 12 11  1  0  0  0  0
 12 13  1  0  0  0  0
 14 12  1  0  0  0  0
 15 14  1  0  0  0  0
 16 14  2  0  0  0  0
 16 10  1  0  0  0  0
 17 15  2  0  0  0  0
 18 19  2  0  0  0  0
 18 17  1  0  0  0  0
 19 16  1  0  0  0  0
M  END
>  <REMARK>
 VINA RESULT:      -7.6      2.869      4.883
  4 active torsions:
  status: ('A' for Active; 'I' for Inactive)
    1  A    between atoms: C1_1  and  C7_10 
    2  A    between atoms: C2_2  and  C4_5 
    3  A    between atoms: C4_5  and  O2_7 
    4  A    between atoms: O2_7  and  C5_8 

>  <TORSDO>
F 4

$$$$
../pdbqt/decoy.vina_out.5.pdbqt
 OpenBabel06052021513D

 19 20  0  0  0  0  0  0  0  0999 V2000
  -24.3450   64.8750   27.0360 C   0  0  0  0  0  0  0  0  0  0  0  0
  -23.6250   63.7390   27.1200 C   0  0  0  0  0  0  0  0  0  0  0  0
  -22.8750   63.2320   25.9940 C   0  0  0  0  0  0  0  0  0  0  0  0
  -22.2710   62.8220   25.0950 N   0  0  0  0  0  0  0  0  0  0  0  0
  -23.5290   63.0110   28.4060 C   0  0  0  0  0  0  0  0  0  0  0  0
  -24.2830   62.0220   28.6230 O   0  0  0  0  0  0  0  0  0  0  0  0
  -22.6020   63.4130   29.3760 O   0  0  0  0  0  0  0  0  0  0  0  0
  -21.2110   63.0990   29.3160 C   0  0  0  0  0  0  0  0  0  0  0  0
  -20.7780   62.3360   30.5630 C   0  0  0  0  0  0  0  0  0  0  0  0
  -24.5320   65.6780   25.8050 C   0  0  0  0  0  0  0  0  0  0  0  0
  -23.5740   66.3870   25.0770 C   0  0  0  0  0  0  0  0  0  0  0  0
  -24.1240   66.9160   23.9610 N   0  0  0  0  0  0  0  0  0  0  0  0
  -23.6340   67.4810   23.2320 H   0  0  0  0  0  0  0  0  0  0  0  0
  -25.4120   66.5380   23.9640 C   0  0  0  0  0  0  0  0  0  0  0  0
  -26.3800   66.8280   23.0030 C   0  0  0  0  0  0  0  0  0  0  0  0
  -25.6960   65.7740   25.0670 C   0  0  0  0  0  0  0  0  0  0  0  0
  -27.6740   66.3130   23.1960 C   0  0  0  0  0  0  0  0  0  0  0  0
  -27.9690   65.5280   24.3330 C   0  0  0  0  0  0  0  0  0  0  0  0
  -26.9720   65.2490   25.2850 C   0  0  0  0  0  0  0  0  0  0  0  0
  1  2  2  0  0  0  0
  2  5  1  0  0  0  0
  3  2  1  0  0  0  0
  4  3  3  0  0  0  0
  5  6  2  0  0  0  0
  5  7  1  0  0  0  0
  8  7  1  0  0  0  0
  8  9  1  0  0  0  0
 10  1  1  0  0  0  0
 11 10  2  0  0  0  0
 12 14  1  0  0  0  0
 12 11  1  0  0  0  0
 13 12  1  0  0  0  0
 14 16  2  0  0  0  0
 15 17  2  0  0  0  0
 15 14  1  0  0  0  0
 16 19  1  0  0  0  0
 16 10  1  0  0  0  0
 17 18  1  0  0  0  0
 18 19  2  0  0  0  0
M  END
>  <REMARK>
 VINA RESULT:      -7.5      3.676      6.006
  4 active torsions:
  status: ('A' for Active; 'I' for Inactive)
    1  A    between atoms: C1_1  and  C7_10 
    2  A    between atoms: C2_2  and  C4_5 
    3  A    between atoms: C4_5  and  O2_7 
    4  A    between atoms: O2_7  and  C5_8 

>  <TORSDO>
F 4

$$$$
../pdbqt/decoy.vina_out.5.pdbqt
 OpenBabel06052021513D

 19 20  0  0  0  0  0  0  0  0999 V2000
  -23.1400   65.3700   26.2410 C   0  0  0  0  0  0  0  0  0  0  0  0
  -22.1800   64.6990   25.5730 C   0  0  0  0  0  0  0  0  0  0  0  0
  -22.5010   63.7900   24.4960 C   0  0  0  0  0  0  0  0  0  0  0  0
  -22.7530   63.0640   23.6310 N   0  0  0  0  0  0  0  0  0  0  0  0
  -20.7520   64.9310   25.8860 C   0  0  0  0  0  0  0  0  0  0  0  0
  -19.9900   65.4210   25.0060 O   0  0  0  0  0  0  0  0  0  0  0  0
  -20.2470   64.6120   27.1530 O   0  0  0  0  0  0  0  0  0  0  0  0
  -20.1510   63.2780   27.6500 C   0  0  0  0  0  0  0  0  0  0  0  0
  -20.4800   63.2340   29.1380 C   0  0  0  0  0  0  0  0  0  0  0  0
  -24.5970   65.2080   26.0330 C   0  0  0  0  0  0  0  0  0  0  0  0
  -25.5080   64.4790   26.8000 C   0  0  0  0  0  0  0  0  0  0  0  0
  -26.7650   64.6540   26.3350 N   0  0  0  0  0  0  0  0  0  0  0  0
  -27.6390   64.2370   26.7270 H   0  0  0  0  0  0  0  0  0  0  0  0
  -26.6650   65.4960   25.2940 C   0  0  0  0  0  0  0  0  0  0  0  0
  -27.7020   65.9880   24.5020 C   0  0  0  0  0  0  0  0  0  0  0  0
  -25.3600   65.8640   25.0850 C   0  0  0  0  0  0  0  0  0  0  0  0
  -27.3720   66.8810   23.4660 C   0  0  0  0  0  0  0  0  0  0  0  0
  -26.0280   67.2580   23.2490 C   0  0  0  0  0  0  0  0  0  0  0  0
  -25.0030   66.7470   24.0660 C   0  0  0  0  0  0  0  0  0  0  0  0
  2  5  1  0  0  0  0
  2  1  2  0  0  0  0
  3  2  1  0  0  0  0
  4  3  3  0  0  0  0
  5  7  1  0  0  0  0
  6  5  2  0  0  0  0
  7  8  1  0  0  0  0
  8  9  1  0  0  0  0
 10  1  1  0  0  0  0
 10 11  2  0  0  0  0
 12 13  1  0  0  0  0
 12 11  1  0  0  0  0
 14 12  1  0  0  0  0
 15 14  2  0  0  0  0
 16 14  1  0  0  0  0
 16 10  1  0  0  0  0
 17 15  1  0  0  0  0
 18 17  2  0  0  0  0
 18 19  1  0  0  0  0
 19 16  2  0  0  0  0
M  END
>  <REMARK>
 VINA RESULT:      -7.4      3.058      5.267
  4 active torsions:
  status: ('A' for Active; 'I' for Inactive)
    1  A    between atoms: C1_1  and  C7_10 
    2  A    between atoms: C2_2  and  C4_5 
    3  A    between atoms: C4_5  and  O2_7 
    4  A    between atoms: O2_7  and  C5_8 

>  <TORSDO>
F 4

$$$$
../pdbqt/decoy.vina_out.5.pdbqt
 OpenBabel06052021513D

 19 20  0  0  0  0  0  0  0  0999 V2000
  -23.9090   66.6560   24.3760 C   0  0  0  0  0  0  0  0  0  0  0  0
  -25.2080   66.3150   24.4980 C   0  0  0  0  0  0  0  0  0  0  0  0
  -25.6800   65.5150   25.6060 C   0  0  0  0  0  0  0  0  0  0  0  0
  -26.0640   64.8770   26.4930 N   0  0  0  0  0  0  0  0  0  0  0  0
  -26.2050   66.8130   23.5250 C   0  0  0  0  0  0  0  0  0  0  0  0
  -26.0630   67.9590   23.0140 O   0  0  0  0  0  0  0  0  0  0  0  0
  -27.3010   66.0170   23.1680 O   0  0  0  0  0  0  0  0  0  0  0  0
  -28.6220   66.2250   23.6670 C   0  0  0  0  0  0  0  0  0  0  0  0
  -29.1650   64.9480   24.2990 C   0  0  0  0  0  0  0  0  0  0  0  0
  -22.8200   66.2040   25.2720 C   0  0  0  0  0  0  0  0  0  0  0  0
  -22.5330   64.9080   25.7040 C   0  0  0  0  0  0  0  0  0  0  0  0
  -21.4010   64.8940   26.4420 N   0  0  0  0  0  0  0  0  0  0  0  0
  -20.9500   64.0590   26.8780 H   0  0  0  0  0  0  0  0  0  0  0  0
  -20.9580   66.1620   26.4710 C   0  0  0  0  0  0  0  0  0  0  0  0
  -19.8090   66.6420   27.0980 C   0  0  0  0  0  0  0  0  0  0  0  0
  -21.7920   66.9880   25.7610 C   0  0  0  0  0  0  0  0  0  0  0  0
  -19.5230   68.0140   26.9850 C   0  0  0  0  0  0  0  0  0  0  0  0
  -20.3820   68.8660   26.2570 C   0  0  0  0  0  0  0  0  0  0  0  0
  -21.5340   68.3540   25.6320 C   0  0  0  0  0  0  0  0  0  0  0  0
  1  2  2  0  0  0  0
  1 10  1  0  0  0  0
  2  3  1  0  0  0  0
  3  4  3  0  0  0  0
  5  2  1  0  0  0  0
  6  5  2  0  0  0  0
  7  5  1  0  0  0  0
  7  8  1  0  0  0  0
  8  9  1  0  0  0  0
 10 11  2  0  0  0  0
 10 16  1  0  0  0  0
 11 12  1  0  0  0  0
 12 14  1  0  0  0  0
 12 13  1  0  0  0  0
 14 15  2  0  0  0  0
 16 14  1  0  0  0  0
 17 15  1  0  0  0  0
 18 17  2  0  0  0  0
 19 16  2  0  0  0  0
 19 18  1  0  0  0  0
M  END
>  <REMARK>
 VINA RESULT:      -7.4      2.847      5.761
  4 active torsions:
  status: ('A' for Active; 'I' for Inactive)
    1  A    between atoms: C1_1  and  C7_10 
    2  A    between atoms: C2_2  and  C4_5 
    3  A    between atoms: C4_5  and  O2_7 
    4  A    between atoms: O2_7  and  C5_8 

>  <TORSDO>
F 4

$$$$
