../pdbqt/decoy.vina_out.16.pdbqt
 OpenBabel06052021513D

 24 27  0  0  0  0  0  0  0  0999 V2000
  -21.1490   64.8730   24.6640 N   0  0  0  0  0  0  0  0  0  0  0  0
  -20.2070   64.3540   23.8390 C   0  0  0  0  0  0  0  0  0  0  0  0
  -20.6870   63.2050   23.2350 C   0  0  0  0  0  0  0  0  0  0  0  0
  -21.9750   63.0260   23.6920 C   0  0  0  0  0  0  0  0  0  0  0  0
  -22.2320   64.0620   24.5740 C   0  0  0  0  0  0  0  0  0  0  0  0
  -21.0370   66.0670   25.4580 C   0  0  0  0  0  0  0  0  0  0  0  0
  -20.6500   65.9980   26.8080 C   0  0  0  0  0  0  0  0  0  0  0  0
  -20.3910   64.7690   27.4060 O   0  0  0  0  0  0  0  0  0  0  0  0
  -20.5370   67.1690   27.5650 C   0  0  0  0  0  0  0  0  0  0  0  0
  -20.8170   68.4100   26.9850 C   0  0  0  0  0  0  0  0  0  0  0  0
  -21.2120   68.4830   25.6470 C   0  0  0  0  0  0  0  0  0  0  0  0
  -21.3230   67.3170   24.8850 C   0  0  0  0  0  0  0  0  0  0  0  0
  -18.8750   64.9420   23.5680 C   0  0  0  0  0  0  0  0  0  0  0  0
  -17.7640   64.6130   24.3640 C   0  0  0  0  0  0  0  0  0  0  0  0
  -16.5130   65.1770   24.0990 C   0  0  0  0  0  0  0  0  0  0  0  0
  -16.3610   66.0820   23.0440 C   0  0  0  0  0  0  0  0  0  0  0  0
  -17.4630   66.4280   22.2590 C   0  0  0  0  0  0  0  0  0  0  0  0
  -18.7160   65.8660   22.5210 C   0  0  0  0  0  0  0  0  0  0  0  0
  -23.4970   64.2230   25.3260 C   0  0  0  0  0  0  0  0  0  0  0  0
  -24.4330   65.2080   24.9630 C   0  0  0  0  0  0  0  0  0  0  0  0
  -25.6220   65.3520   25.6830 C   0  0  0  0  0  0  0  0  0  0  0  0
  -25.8830   64.5240   26.7780 C   0  0  0  0  0  0  0  0  0  0  0  0
  -24.9520   63.5540   27.1560 C   0  0  0  0  0  0  0  0  0  0  0  0
  -23.7610   63.4060   26.4390 C   0  0  0  0  0  0  0  0  0  0  0  0
  1  6  1  0  0  0  0
  2  1  1  0  0  0  0
  3  4  1  0  0  0  0
  3  2  2  0  0  0  0
  4  5  2  0  0  0  0
  5  1  1  0  0  0  0
  5 19  1  0  0  0  0
  6  7  1  0  0  0  0
  7  8  1  0  0  0  0
  7  9  2  0  0  0  0
 10  9  1  0  0  0  0
 11 10  2  0  0  0  0
 12  6  2  0  0  0  0
 12 11  1  0  0  0  0
 13  2  1  0  0  0  0
 13 14  2  0  0  0  0
 15 14  1  0  0  0  0
 16 15  2  0  0  0  0
 17 18  2  0  0  0  0
 17 16  1  0  0  0  0
 18 13  1  0  0  0  0
 19 24  1  0  0  0  0
 20 19  2  0  0  0  0
 20 21  1  0  0  0  0
 21 22  2  0  0  0  0
 22 23  1  0  0  0  0
 24 23  2  0  0  0  0
M  END
>  <MODEL>
1

>  <REMARK>
 VINA RESULT:      -8.3      0.000      0.000
  3 active torsions:
  status: ('A' for Active; 'I' for Inactive)
    1  A    between atoms: C6_7  and  N1_8 
    2  A    between atoms: C7_9  and  C8_10 
    3  A    between atoms: C16_18  and  C17_19 

>  <TORSDO>
F 3

$$$$
../pdbqt/decoy.vina_out.16.pdbqt
 OpenBabel06052021513D

 24 27  0  0  0  0  0  0  0  0999 V2000
  -21.1750   64.8850   24.6780 N   0  0  0  0  0  0  0  0  0  0  0  0
  -22.2480   64.0580   24.6140 C   0  0  0  0  0  0  0  0  0  0  0  0
  -21.9860   63.0090   23.7500 C   0  0  0  0  0  0  0  0  0  0  0  0
  -20.7000   63.1900   23.2860 C   0  0  0  0  0  0  0  0  0  0  0  0
  -20.2270   64.3540   23.8670 C   0  0  0  0  0  0  0  0  0  0  0  0
  -21.0520   66.0770   25.4750 C   0  0  0  0  0  0  0  0  0  0  0  0
  -20.6480   66.0040   26.8200 C   0  0  0  0  0  0  0  0  0  0  0  0
  -20.3830   64.7730   27.4110 O   0  0  0  0  0  0  0  0  0  0  0  0
  -20.5250   67.1730   27.5780 C   0  0  0  0  0  0  0  0  0  0  0  0
  -20.8110   68.4150   27.0050 C   0  0  0  0  0  0  0  0  0  0  0  0
  -21.2230   68.4920   25.6720 C   0  0  0  0  0  0  0  0  0  0  0  0
  -21.3440   67.3290   24.9080 C   0  0  0  0  0  0  0  0  0  0  0  0
  -23.5030   64.2070   25.3840 C   0  0  0  0  0  0  0  0  0  0  0  0
  -23.7870   63.3650   26.4740 C   0  0  0  0  0  0  0  0  0  0  0  0
  -24.9780   63.5150   27.1910 C   0  0  0  0  0  0  0  0  0  0  0  0
  -25.9000   64.4980   26.8210 C   0  0  0  0  0  0  0  0  0  0  0  0
  -25.6350   65.3270   25.7290 C   0  0  0  0  0  0  0  0  0  0  0  0
  -24.4450   65.1800   25.0090 C   0  0  0  0  0  0  0  0  0  0  0  0
  -18.8920   64.9370   23.6020 C   0  0  0  0  0  0  0  0  0  0  0  0
  -17.7850   64.6000   24.4020 C   0  0  0  0  0  0  0  0  0  0  0  0
  -16.5310   65.1600   24.1430 C   0  0  0  0  0  0  0  0  0  0  0  0
  -16.3720   66.0680   23.0950 C   0  0  0  0  0  0  0  0  0  0  0  0
  -17.4690   66.4230   22.3050 C   0  0  0  0  0  0  0  0  0  0  0  0
  -18.7260   65.8650   22.5610 C   0  0  0  0  0  0  0  0  0  0  0  0
  1  6  1  0  0  0  0
  2  1  1  0  0  0  0
  2 13  1  0  0  0  0
  3  2  2  0  0  0  0
  4  3  1  0  0  0  0
  4  5  2  0  0  0  0
  5  1  1  0  0  0  0
  6  7  1  0  0  0  0
  7  8  1  0  0  0  0
  7  9  2  0  0  0  0
 10  9  1  0  0  0  0
 11 10  2  0  0  0  0
 12  6  2  0  0  0  0
 12 11  1  0  0  0  0
 13 14  1  0  0  0  0
 14 15  2  0  0  0  0
 16 15  1  0  0  0  0
 17 16  2  0  0  0  0
 18 13  2  0  0  0  0
 18 17  1  0  0  0  0
 19  5  1  0  0  0  0
 19 20  2  0  0  0  0
 21 20  1  0  0  0  0
 22 21  2  0  0  0  0
 23 24  2  0  0  0  0
 23 22  1  0  0  0  0
 24 19  1  0  0  0  0
M  END
>  <REMARK>
 VINA RESULT:      -8.2      0.044      5.727
  3 active torsions:
  status: ('A' for Active; 'I' for Inactive)
    1  A    between atoms: C6_7  and  N1_8 
    2  A    between atoms: C7_9  and  C8_10 
    3  A    between atoms: C16_18  and  C17_19 

>  <TORSDO>
F 3

$$$$
../pdbqt/decoy.vina_out.16.pdbqt
 OpenBabel06052021513D

 24 27  0  0  0  0  0  0  0  0999 V2000
  -23.3440   65.1720   26.7520 N   0  0  0  0  0  0  0  0  0  0  0  0
  -24.6160   64.8050   26.4590 C   0  0  0  0  0  0  0  0  0  0  0  0
  -25.0360   65.4370   25.3010 C   0  0  0  0  0  0  0  0  0  0  0  0
  -23.9760   66.2010   24.8600 C   0  0  0  0  0  0  0  0  0  0  0  0
  -22.9510   66.0250   25.7730 C   0  0  0  0  0  0  0  0  0  0  0  0
  -22.5510   64.7220   27.8650 C   0  0  0  0  0  0  0  0  0  0  0  0
  -21.6510   63.6520   27.7190 C   0  0  0  0  0  0  0  0  0  0  0  0
  -21.5280   62.9930   26.5000 O   0  0  0  0  0  0  0  0  0  0  0  0
  -20.8800   63.2320   28.8090 C   0  0  0  0  0  0  0  0  0  0  0  0
  -21.0100   63.8670   30.0470 C   0  0  0  0  0  0  0  0  0  0  0  0
  -21.9110   64.9240   30.1990 C   0  0  0  0  0  0  0  0  0  0  0  0
  -22.6800   65.3510   29.1140 C   0  0  0  0  0  0  0  0  0  0  0  0
  -25.4340   63.8340   27.2200 C   0  0  0  0  0  0  0  0  0  0  0  0
  -24.8780   62.6300   27.6880 C   0  0  0  0  0  0  0  0  0  0  0  0
  -25.6620   61.7210   28.4040 C   0  0  0  0  0  0  0  0  0  0  0  0
  -27.0100   61.9990   28.6490 C   0  0  0  0  0  0  0  0  0  0  0  0
  -27.5750   63.1840   28.1740 C   0  0  0  0  0  0  0  0  0  0  0  0
  -26.7940   64.0960   27.4570 C   0  0  0  0  0  0  0  0  0  0  0  0
  -21.6380   66.7050   25.6950 C   0  0  0  0  0  0  0  0  0  0  0  0
  -20.5570   66.1130   25.0170 C   0  0  0  0  0  0  0  0  0  0  0  0
  -19.3220   66.7640   24.9540 C   0  0  0  0  0  0  0  0  0  0  0  0
  -19.1500   68.0020   25.5750 C   0  0  0  0  0  0  0  0  0  0  0  0
  -20.2130   68.5910   26.2660 C   0  0  0  0  0  0  0  0  0  0  0  0
  -21.4510   67.9430   26.3320 C   0  0  0  0  0  0  0  0  0  0  0  0
  1  6  1  0  0  0  0
  2  1  1  0  0  0  0
  2 13  1  0  0  0  0
  3  2  2  0  0  0  0
  4  3  1  0  0  0  0
  4  5  2  0  0  0  0
  5  1  1  0  0  0  0
  6 12  1  0  0  0  0
  7  6  2  0  0  0  0
  7  9  1  0  0  0  0
  8  7  1  0  0  0  0
  9 10  2  0  0  0  0
 10 11  1  0  0  0  0
 12 11  2  0  0  0  0
 13 18  2  0  0  0  0
 13 14  1  0  0  0  0
 14 15  2  0  0  0  0
 15 16  1  0  0  0  0
 17 16  2  0  0  0  0
 18 17  1  0  0  0  0
 19  5  1  0  0  0  0
 19 24  2  0  0  0  0
 20 19  1  0  0  0  0
 21 20  2  0  0  0  0
 21 22  1  0  0  0  0
 22 23  2  0  0  0  0
 23 24  1  0  0  0  0
M  END
>  <REMARK>
 VINA RESULT:      -7.9      2.249      6.624
  3 active torsions:
  status: ('A' for Active; 'I' for Inactive)
    1  A    between atoms: C6_7  and  N1_8 
    2  A    between atoms: C7_9  and  C8_10 
    3  A    between atoms: C16_18  and  C17_19 

>  <TORSDO>
F 3

$$$$
../pdbqt/decoy.vina_out.16.pdbqt
 OpenBabel06052021513D

 24 27  0  0  0  0  0  0  0  0999 V2000
  -21.0290   65.7220   24.9650 N   0  0  0  0  0  0  0  0  0  0  0  0
  -22.0950   66.3730   25.4920 C   0  0  0  0  0  0  0  0  0  0  0  0
  -21.8800   67.7390   25.4570 C   0  0  0  0  0  0  0  0  0  0  0  0
  -20.6480   67.9320   24.8690 C   0  0  0  0  0  0  0  0  0  0  0  0
  -20.1430   66.6750   24.5820 C   0  0  0  0  0  0  0  0  0  0  0  0
  -20.8770   64.2990   24.8110 C   0  0  0  0  0  0  0  0  0  0  0  0
  -20.1870   63.5430   25.7750 C   0  0  0  0  0  0  0  0  0  0  0  0
  -19.6190   64.1620   26.8840 O   0  0  0  0  0  0  0  0  0  0  0  0
  -20.0550   62.1590   25.6160 C   0  0  0  0  0  0  0  0  0  0  0  0
  -20.5990   61.5260   24.4950 C   0  0  0  0  0  0  0  0  0  0  0  0
  -21.2760   62.2750   23.5290 C   0  0  0  0  0  0  0  0  0  0  0  0
  -21.4150   63.6570   23.6840 C   0  0  0  0  0  0  0  0  0  0  0  0
  -23.3380   65.7390   25.9880 C   0  0  0  0  0  0  0  0  0  0  0  0
  -23.3450   65.0010   27.1850 C   0  0  0  0  0  0  0  0  0  0  0  0
  -24.5240   64.4060   27.6410 C   0  0  0  0  0  0  0  0  0  0  0  0
  -25.7040   64.5310   26.9020 C   0  0  0  0  0  0  0  0  0  0  0  0
  -25.7030   65.2480   25.7030 C   0  0  0  0  0  0  0  0  0  0  0  0
  -24.5250   65.8450   25.2440 C   0  0  0  0  0  0  0  0  0  0  0  0
  -18.8140   66.4270   23.9790 C   0  0  0  0  0  0  0  0  0  0  0  0
  -18.6710   66.2610   22.5900 C   0  0  0  0  0  0  0  0  0  0  0  0
  -17.4110   66.0240   22.0330 C   0  0  0  0  0  0  0  0  0  0  0  0
  -16.2860   65.9380   22.8560 C   0  0  0  0  0  0  0  0  0  0  0  0
  -16.4210   66.0840   24.2400 C   0  0  0  0  0  0  0  0  0  0  0  0
  -17.6790   66.3210   24.8010 C   0  0  0  0  0  0  0  0  0  0  0  0
  1  2  1  0  0  0  0
  2 13  1  0  0  0  0
  3  2  2  0  0  0  0
  4  3  1  0  0  0  0
  5  4  2  0  0  0  0
  5  1  1  0  0  0  0
  6  1  1  0  0  0  0
  6  7  2  0  0  0  0
  7  8  1  0  0  0  0
  9  7  1  0  0  0  0
 10  9  2  0  0  0  0
 11 12  2  0  0  0  0
 11 10  1  0  0  0  0
 12  6  1  0  0  0  0
 13 14  2  0  0  0  0
 14 15  1  0  0  0  0
 16 15  2  0  0  0  0
 17 16  1  0  0  0  0
 18 17  2  0  0  0  0
 18 13  1  0  0  0  0
 19  5  1  0  0  0  0
 19 24  2  0  0  0  0
 20 19  1  0  0  0  0
 21 20  2  0  0  0  0
 21 22  1  0  0  0  0
 22 23  2  0  0  0  0
 23 24  1  0  0  0  0
M  END
>  <REMARK>
 VINA RESULT:      -7.8      1.296      6.436
  3 active torsions:
  status: ('A' for Active; 'I' for Inactive)
    1  A    between atoms: C6_7  and  N1_8 
    2  A    between atoms: C7_9  and  C8_10 
    3  A    between atoms: C16_18  and  C17_19 

>  <TORSDO>
F 3

$$$$
../pdbqt/decoy.vina_out.16.pdbqt
 OpenBabel06052021513D

 24 27  0  0  0  0  0  0  0  0999 V2000
  -21.2250   64.4960   24.9400 N   0  0  0  0  0  0  0  0  0  0  0  0
  -22.3320   63.7200   24.8310 C   0  0  0  0  0  0  0  0  0  0  0  0
  -22.1760   62.8160   23.7950 C   0  0  0  0  0  0  0  0  0  0  0  0
  -20.9220   63.0340   23.2650 C   0  0  0  0  0  0  0  0  0  0  0  0
  -20.3620   64.0760   23.9830 C   0  0  0  0  0  0  0  0  0  0  0  0
  -20.9970   65.5410   25.9020 C   0  0  0  0  0  0  0  0  0  0  0  0
  -21.3460   66.8730   25.6130 C   0  0  0  0  0  0  0  0  0  0  0  0
  -21.8980   67.2050   24.3800 O   0  0  0  0  0  0  0  0  0  0  0  0
  -21.1260   67.8760   26.5620 C   0  0  0  0  0  0  0  0  0  0  0  0
  -20.5500   67.5620   27.7960 C   0  0  0  0  0  0  0  0  0  0  0  0
  -20.1910   66.2420   28.0830 C   0  0  0  0  0  0  0  0  0  0  0  0
  -20.4120   65.2350   27.1420 C   0  0  0  0  0  0  0  0  0  0  0  0
  -23.5200   63.7780   25.7120 C   0  0  0  0  0  0  0  0  0  0  0  0
  -24.5190   64.7480   25.5160 C   0  0  0  0  0  0  0  0  0  0  0  0
  -25.6350   64.7920   26.3570 C   0  0  0  0  0  0  0  0  0  0  0  0
  -25.7590   63.8780   27.4070 C   0  0  0  0  0  0  0  0  0  0  0  0
  -24.7630   62.9220   27.6200 C   0  0  0  0  0  0  0  0  0  0  0  0
  -23.6450   62.8740   26.7810 C   0  0  0  0  0  0  0  0  0  0  0  0
  -19.0280   64.6570   23.7080 C   0  0  0  0  0  0  0  0  0  0  0  0
  -18.8760   65.7190   22.7990 C   0  0  0  0  0  0  0  0  0  0  0  0
  -17.6110   66.2570   22.5460 C   0  0  0  0  0  0  0  0  0  0  0  0
  -16.4860   65.7330   23.1870 C   0  0  0  0  0  0  0  0  0  0  0  0
  -16.6240   64.6660   24.0790 C   0  0  0  0  0  0  0  0  0  0  0  0
  -17.8880   64.1250   24.3350 C   0  0  0  0  0  0  0  0  0  0  0  0
  1  6  1  0  0  0  0
  2  1  1  0  0  0  0
  2 13  1  0  0  0  0
  3  2  2  0  0  0  0
  4  3  1  0  0  0  0
  4  5  2  0  0  0  0
  5  1  1  0  0  0  0
  6 12  1  0  0  0  0
  7  6  2  0  0  0  0
  7  9  1  0  0  0  0
  8  7  1  0  0  0  0
  9 10  2  0  0  0  0
 10 11  1  0  0  0  0
 12 11  2  0  0  0  0
 13 18  1  0  0  0  0
 14 13  2  0  0  0  0
 14 15  1  0  0  0  0
 15 16  2  0  0  0  0
 16 17  1  0  0  0  0
 18 17  2  0  0  0  0
 19  5  1  0  0  0  0
 19 24  2  0  0  0  0
 20 19  1  0  0  0  0
 21 20  2  0  0  0  0
 21 22  1  0  0  0  0
 22 23  2  0  0  0  0
 23 24  1  0  0  0  0
M  END
>  <REMARK>
 VINA RESULT:      -7.7      1.044      5.904
  3 active torsions:
  status: ('A' for Active; 'I' for Inactive)
    1  A    between atoms: C6_7  and  N1_8 
    2  A    between atoms: C7_9  and  C8_10 
    3  A    between atoms: C16_18  and  C17_19 

>  <TORSDO>
F 3

$$$$
../pdbqt/decoy.vina_out.16.pdbqt
 OpenBabel06052021513D

 24 27  0  0  0  0  0  0  0  0999 V2000
  -21.2060   64.5010   24.9450 N   0  0  0  0  0  0  0  0  0  0  0  0
  -20.3520   64.0940   23.9740 C   0  0  0  0  0  0  0  0  0  0  0  0
  -20.9240   63.0710   23.2380 C   0  0  0  0  0  0  0  0  0  0  0  0
  -22.1810   62.8590   23.7660 C   0  0  0  0  0  0  0  0  0  0  0  0
  -22.3250   63.7460   24.8180 C   0  0  0  0  0  0  0  0  0  0  0  0
  -20.9830   65.5490   25.9050 C   0  0  0  0  0  0  0  0  0  0  0  0
  -21.3400   66.8770   25.6140 C   0  0  0  0  0  0  0  0  0  0  0  0
  -21.8940   67.2050   24.3810 O   0  0  0  0  0  0  0  0  0  0  0  0
  -21.1260   67.8830   26.5620 C   0  0  0  0  0  0  0  0  0  0  0  0
  -20.5470   67.5750   27.7960 C   0  0  0  0  0  0  0  0  0  0  0  0
  -20.1810   66.2570   28.0860 C   0  0  0  0  0  0  0  0  0  0  0  0
  -20.3970   65.2470   27.1460 C   0  0  0  0  0  0  0  0  0  0  0  0
  -19.0220   64.6780   23.6900 C   0  0  0  0  0  0  0  0  0  0  0  0
  -18.8720   65.7120   22.7480 C   0  0  0  0  0  0  0  0  0  0  0  0
  -17.6100   66.2530   22.4880 C   0  0  0  0  0  0  0  0  0  0  0  0
  -16.4850   65.7610   23.1560 C   0  0  0  0  0  0  0  0  0  0  0  0
  -16.6210   64.7230   24.0800 C   0  0  0  0  0  0  0  0  0  0  0  0
  -17.8820   64.1790   24.3430 C   0  0  0  0  0  0  0  0  0  0  0  0
  -23.5210   63.8220   25.6880 C   0  0  0  0  0  0  0  0  0  0  0  0
  -23.7020   62.9150   26.7470 C   0  0  0  0  0  0  0  0  0  0  0  0
  -24.8370   62.9940   27.5590 C   0  0  0  0  0  0  0  0  0  0  0  0
  -25.8060   63.9700   27.3140 C   0  0  0  0  0  0  0  0  0  0  0  0
  -25.6440   64.8660   26.2540 C   0  0  0  0  0  0  0  0  0  0  0  0
  -24.5100   64.7890   25.4390 C   0  0  0  0  0  0  0  0  0  0  0  0
  1  6  1  0  0  0  0
  2  1  1  0  0  0  0
  3  4  1  0  0  0  0
  3  2  2  0  0  0  0
  4  5  2  0  0  0  0
  5  1  1  0  0  0  0
  5 19  1  0  0  0  0
  6 12  1  0  0  0  0
  7  6  2  0  0  0  0
  7  9  1  0  0  0  0
  8  7  1  0  0  0  0
  9 10  2  0  0  0  0
 10 11  1  0  0  0  0
 12 11  2  0  0  0  0
 13  2  1  0  0  0  0
 13 18  2  0  0  0  0
 14 13  1  0  0  0  0
 15 14  2  0  0  0  0
 15 16  1  0  0  0  0
 16 17  2  0  0  0  0
 17 18  1  0  0  0  0
 19 20  1  0  0  0  0
 20 21  2  0  0  0  0
 22 21  1  0  0  0  0
 23 22  2  0  0  0  0
 24 19  2  0  0  0  0
 24 23  1  0  0  0  0
M  END
>  <REMARK>
 VINA RESULT:      -7.7      1.028      2.008
  3 active torsions:
  status: ('A' for Active; 'I' for Inactive)
    1  A    between atoms: C6_7  and  N1_8 
    2  A    between atoms: C7_9  and  C8_10 
    3  A    between atoms: C16_18  and  C17_19 

>  <TORSDO>
F 3

$$$$
../pdbqt/decoy.vina_out.16.pdbqt
 OpenBabel06052021513D

 24 27  0  0  0  0  0  0  0  0999 V2000
  -21.2610   64.2500   26.0510 N   0  0  0  0  0  0  0  0  0  0  0  0
  -22.3960   63.6570   25.6070 C   0  0  0  0  0  0  0  0  0  0  0  0
  -22.1160   62.3830   25.1440 C   0  0  0  0  0  0  0  0  0  0  0  0
  -20.7650   62.1830   25.3300 C   0  0  0  0  0  0  0  0  0  0  0  0
  -20.2620   63.3480   25.8830 C   0  0  0  0  0  0  0  0  0  0  0  0
  -21.1400   65.5660   26.6180 C   0  0  0  0  0  0  0  0  0  0  0  0
  -20.8410   66.6740   25.8050 C   0  0  0  0  0  0  0  0  0  0  0  0
  -20.6320   66.5110   24.4400 O   0  0  0  0  0  0  0  0  0  0  0  0
  -20.7360   67.9490   26.3700 C   0  0  0  0  0  0  0  0  0  0  0  0
  -20.9180   68.1260   27.7450 C   0  0  0  0  0  0  0  0  0  0  0  0
  -21.2060   67.0270   28.5580 C   0  0  0  0  0  0  0  0  0  0  0  0
  -21.3160   65.7510   28.0000 C   0  0  0  0  0  0  0  0  0  0  0  0
  -23.7540   64.2450   25.6510 C   0  0  0  0  0  0  0  0  0  0  0  0
  -24.7000   63.8130   26.5980 C   0  0  0  0  0  0  0  0  0  0  0  0
  -25.9790   64.3760   26.6270 C   0  0  0  0  0  0  0  0  0  0  0  0
  -26.3300   65.3660   25.7050 C   0  0  0  0  0  0  0  0  0  0  0  0
  -25.4040   65.7890   24.7490 C   0  0  0  0  0  0  0  0  0  0  0  0
  -24.1230   65.2280   24.7170 C   0  0  0  0  0  0  0  0  0  0  0  0
  -18.8340   63.5710   26.2040 C   0  0  0  0  0  0  0  0  0  0  0  0
  -17.9240   63.9700   25.2090 C   0  0  0  0  0  0  0  0  0  0  0  0
  -16.5770   64.1740   25.5240 C   0  0  0  0  0  0  0  0  0  0  0  0
  -16.1250   63.9710   26.8300 C   0  0  0  0  0  0  0  0  0  0  0  0
  -17.0180   63.5580   27.8220 C   0  0  0  0  0  0  0  0  0  0  0  0
  -18.3660   63.3520   27.5110 C   0  0  0  0  0  0  0  0  0  0  0  0
  1  6  1  0  0  0  0
  2 13  1  0  0  0  0
  2  1  1  0  0  0  0
  3  4  1  0  0  0  0
  3  2  2  0  0  0  0
  4  5  2  0  0  0  0
  5  1  1  0  0  0  0
  5 19  1  0  0  0  0
  6 12  2  0  0  0  0
  7  9  2  0  0  0  0
  7  6  1  0  0  0  0
  8  7  1  0  0  0  0
  9 10  1  0  0  0  0
 10 11  2  0  0  0  0
 12 11  1  0  0  0  0
 13 14  2  0  0  0  0
 14 15  1  0  0  0  0
 16 15  2  0  0  0  0
 17 16  1  0  0  0  0
 18 17  2  0  0  0  0
 18 13  1  0  0  0  0
 19 24  2  0  0  0  0
 20 21  2  0  0  0  0
 20 19  1  0  0  0  0
 21 22  1  0  0  0  0
 22 23  2  0  0  0  0
 24 23  1  0  0  0  0
M  END
>  <REMARK>
 VINA RESULT:      -7.5      1.840      5.766
  3 active torsions:
  status: ('A' for Active; 'I' for Inactive)
    1  A    between atoms: C6_7  and  N1_8 
    2  A    between atoms: C7_9  and  C8_10 
    3  A    between atoms: C16_18  and  C17_19 

>  <TORSDO>
F 3

$$$$
../pdbqt/decoy.vina_out.16.pdbqt
 OpenBabel06052021513D

 24 27  0  0  0  0  0  0  0  0999 V2000
  -20.8680   64.9750   26.4030 N   0  0  0  0  0  0  0  0  0  0  0  0
  -19.8810   65.2540   27.2900 C   0  0  0  0  0  0  0  0  0  0  0  0
  -20.3050   66.2260   28.1800 C   0  0  0  0  0  0  0  0  0  0  0  0
  -21.6040   66.5360   27.8370 C   0  0  0  0  0  0  0  0  0  0  0  0
  -21.9230   65.7580   26.7380 C   0  0  0  0  0  0  0  0  0  0  0  0
  -20.8190   64.0140   25.3340 C   0  0  0  0  0  0  0  0  0  0  0  0
  -20.3440   64.3780   24.0620 C   0  0  0  0  0  0  0  0  0  0  0  0
  -19.9350   65.6830   23.8090 O   0  0  0  0  0  0  0  0  0  0  0  0
  -20.2940   63.4300   23.0340 C   0  0  0  0  0  0  0  0  0  0  0  0
  -20.7250   62.1210   23.2660 C   0  0  0  0  0  0  0  0  0  0  0  0
  -21.2080   61.7560   24.5250 C   0  0  0  0  0  0  0  0  0  0  0  0
  -21.2560   62.6970   25.5570 C   0  0  0  0  0  0  0  0  0  0  0  0
  -18.5580   64.5930   27.3500 C   0  0  0  0  0  0  0  0  0  0  0  0
  -17.4760   65.0710   26.5880 C   0  0  0  0  0  0  0  0  0  0  0  0
  -16.2330   64.4360   26.6520 C   0  0  0  0  0  0  0  0  0  0  0  0
  -16.0600   63.3130   27.4660 C   0  0  0  0  0  0  0  0  0  0  0  0
  -17.1330   62.8210   28.2120 C   0  0  0  0  0  0  0  0  0  0  0  0
  -18.3780   63.4530   28.1510 C   0  0  0  0  0  0  0  0  0  0  0  0
  -23.2190   65.8120   26.0250 C   0  0  0  0  0  0  0  0  0  0  0  0
  -23.3730   66.5920   24.8650 C   0  0  0  0  0  0  0  0  0  0  0  0
  -24.6030   66.6380   24.2020 C   0  0  0  0  0  0  0  0  0  0  0  0
  -25.6920   65.9160   24.6970 C   0  0  0  0  0  0  0  0  0  0  0  0
  -25.5540   65.1510   25.8580 C   0  0  0  0  0  0  0  0  0  0  0  0
  -24.3260   65.1030   26.5240 C   0  0  0  0  0  0  0  0  0  0  0  0
  1  5  1  0  0  0  0
  1  2  1  0  0  0  0
  2 13  1  0  0  0  0
  2  3  2  0  0  0  0
  4  3  1  0  0  0  0
  5  4  2  0  0  0  0
  6 12  1  0  0  0  0
  6  1  1  0  0  0  0
  7  6  2  0  0  0  0
  8  7  1  0  0  0  0
  9 10  2  0  0  0  0
  9  7  1  0  0  0  0
 10 11  1  0  0  0  0
 11 12  2  0  0  0  0
 13 18  2  0  0  0  0
 14 15  2  0  0  0  0
 14 13  1  0  0  0  0
 15 16  1  0  0  0  0
 16 17  2  0  0  0  0
 18 17  1  0  0  0  0
 19 24  1  0  0  0  0
 19  5  1  0  0  0  0
 20 19  2  0  0  0  0
 21 22  2  0  0  0  0
 21 20  1  0  0  0  0
 22 23  1  0  0  0  0
 23 24  2  0  0  0  0
M  END
>  <REMARK>
 VINA RESULT:      -7.4      2.158      4.269
  3 active torsions:
  status: ('A' for Active; 'I' for Inactive)
    1  A    between atoms: C6_7  and  N1_8 
    2  A    between atoms: C7_9  and  C8_10 
    3  A    between atoms: C16_18  and  C17_19 

>  <TORSDO>
F 3

$$$$
../pdbqt/decoy.vina_out.16.pdbqt
 OpenBabel06052021513D

 24 27  0  0  0  0  0  0  0  0999 V2000
  -20.2110   64.1730   25.2950 N   0  0  0  0  0  0  0  0  0  0  0  0
  -19.2860   63.7680   24.3910 C   0  0  0  0  0  0  0  0  0  0  0  0
  -19.2650   62.3860   24.3210 C   0  0  0  0  0  0  0  0  0  0  0  0
  -20.2260   61.9310   25.1990 C   0  0  0  0  0  0  0  0  0  0  0  0
  -20.7880   63.0490   25.7900 C   0  0  0  0  0  0  0  0  0  0  0  0
  -20.5420   65.5290   25.6430 C   0  0  0  0  0  0  0  0  0  0  0  0
  -19.8320   66.2050   26.6520 C   0  0  0  0  0  0  0  0  0  0  0  0
  -18.8140   65.5640   27.3490 O   0  0  0  0  0  0  0  0  0  0  0  0
  -20.1600   67.5270   26.9720 C   0  0  0  0  0  0  0  0  0  0  0  0
  -21.1970   68.1770   26.2980 C   0  0  0  0  0  0  0  0  0  0  0  0
  -21.9110   67.5060   25.3020 C   0  0  0  0  0  0  0  0  0  0  0  0
  -21.5870   66.1870   24.9740 C   0  0  0  0  0  0  0  0  0  0  0  0
  -18.4490   64.6550   23.5520 C   0  0  0  0  0  0  0  0  0  0  0  0
  -18.8270   64.9740   22.2350 C   0  0  0  0  0  0  0  0  0  0  0  0
  -18.0260   65.8110   21.4540 C   0  0  0  0  0  0  0  0  0  0  0  0
  -16.8360   66.3290   21.9740 C   0  0  0  0  0  0  0  0  0  0  0  0
  -16.4440   66.0050   23.2740 C   0  0  0  0  0  0  0  0  0  0  0  0
  -17.2430   65.1670   24.0600 C   0  0  0  0  0  0  0  0  0  0  0  0
  -21.8380   63.0040   26.8320 C   0  0  0  0  0  0  0  0  0  0  0  0
  -23.1910   62.8330   26.4880 C   0  0  0  0  0  0  0  0  0  0  0  0
  -24.1730   62.7950   27.4810 C   0  0  0  0  0  0  0  0  0  0  0  0
  -23.8170   62.9400   28.8240 C   0  0  0  0  0  0  0  0  0  0  0  0
  -22.4780   63.1280   29.1750 C   0  0  0  0  0  0  0  0  0  0  0  0
  -21.4920   63.1660   28.1850 C   0  0  0  0  0  0  0  0  0  0  0  0
  1  6  1  0  0  0  0
  1  5  1  0  0  0  0
  2  1  1  0  0  0  0
  3  2  2  0  0  0  0
  3  4  1  0  0  0  0
  4  5  2  0  0  0  0
  5 19  1  0  0  0  0
  6  7  2  0  0  0  0
  7  9  1  0  0  0  0
  7  8  1  0  0  0  0
 10  9  2  0  0  0  0
 11 10  1  0  0  0  0
 12 11  2  0  0  0  0
 12  6  1  0  0  0  0
 13 18  1  0  0  0  0
 13  2  1  0  0  0  0
 14 13  2  0  0  0  0
 15 16  2  0  0  0  0
 15 14  1  0  0  0  0
 16 17  1  0  0  0  0
 17 18  2  0  0  0  0
 19 24  1  0  0  0  0
 20 19  2  0  0  0  0
 20 21  1  0  0  0  0
 21 22  2  0  0  0  0
 22 23  1  0  0  0  0
 24 23  2  0  0  0  0
M  END
>  <REMARK>
 VINA RESULT:      -7.3      1.576      2.129
  3 active torsions:
  status: ('A' for Active; 'I' for Inactive)
    1  A    between atoms: C6_7  and  N1_8 
    2  A    between atoms: C7_9  and  C8_10 
    3  A    between atoms: C16_18  and  C17_19 

>  <TORSDO>
F 3

$$$$
