../pdbqt/decoy.vina_out.38.pdbqt
 OpenBabel06052021513D

 30 32  0  0  1  0  0  0  0  0999 V2000
  -26.9450   64.5480   26.2060 C   0  0  0  0  0  0  0  0  0  0  0  0
  -26.6610   63.9300   27.3920 N   0  0  0  0  0  0  0  0  0  0  0  0
  -25.4120   63.9780   27.9480 C   0  0  0  0  0  0  0  0  0  0  0  0
  -24.3980   64.6310   27.3120 N   0  0  0  0  0  0  0  0  0  0  0  0
  -24.6620   65.2510   26.1350 C   0  0  0  0  0  0  0  0  0  0  0  0
  -25.9130   65.2600   25.5810 C   0  0  0  0  0  0  0  0  0  0  0  0
  -25.8230   66.0410   24.4320 C   0  0  0  0  0  0  0  0  0  0  0  0
  -24.4910   66.4370   24.3460 C   0  0  0  0  0  0  0  0  0  0  0  0
  -23.7830   65.9450   25.3880 N   0  0  0  0  0  0  0  0  0  0  0  0
  -22.3800   66.2370   25.6910 C   0  0  2  0  0  0  0  0  0  0  0  0
  -22.1950   67.6270   25.8610 O   0  0  0  0  0  0  0  0  0  0  0  0
  -21.0770   68.0090   25.0890 C   0  0  2  0  0  0  0  0  0  0  0  0
  -20.3560   66.7560   24.5990 C   0  0  1  0  0  0  0  0  0  0  0  0
  -21.4680   65.7440   24.5720 C   0  0  1  0  0  0  0  0  0  0  0  0
  -20.1630   68.9310   25.9050 C   0  0  0  0  0  0  0  0  0  0  0  0
  -18.8390   68.8240   25.4610 O   0  0  0  0  0  0  0  0  0  0  0  0
  -18.2960   68.6120   26.2640 H   0  0  0  0  0  0  0  0  0  0  0  0
  -19.8130   66.9580   23.3210 O   0  0  0  0  0  0  0  0  0  0  0  0
  -20.3570   67.6720   22.8950 H   0  0  0  0  0  0  0  0  0  0  0  0
  -20.9770   64.4550   24.8360 O   0  0  0  0  0  0  0  0  0  0  0  0
  -19.9980   64.4930   24.6760 H   0  0  0  0  0  0  0  0  0  0  0  0
  -26.8990   66.5310   23.5530 C   0  0  1  0  0  0  0  0  0  0  0  0
  -26.7690   66.5090   22.2620 N   0  0  0  0  0  0  0  0  0  0  0  0
  -25.8980   66.1480   21.8110 H   0  0  0  0  0  0  0  0  0  0  0  0
  -27.5470   66.8320   21.6460 H   0  0  0  0  0  0  0  0  0  0  0  0
  -28.4510   67.0540   24.2800 S   0  0  0  0  0  0  0  0  0  0  0  0
  -29.1940   66.4780   23.2320 H   0  0  0  0  0  0  0  0  0  0  0  0
  -28.2330   64.3750   25.6150 N   0  0  0  0  0  0  0  0  0  0  0  0
  -29.1000   64.7120   26.0850 H   0  0  0  0  0  0  0  0  0  0  0  0
  -28.3100   64.0510   24.6260 H   0  0  0  0  0  0  0  0  0  0  0  0
  1  2  2  0  0  0  0
  2  3  1  0  0  0  0
  4  3  2  0  0  0  0
  5  4  1  0  0  0  0
  6  5  2  0  0  0  0
  6  1  1  0  0  0  0
  7  6  1  0  0  0  0
  8  7  2  0  0  0  0
  8  9  1  0  0  0  0
  9  5  1  0  0  0  0
 10  9  1  6  0  0  0
 10 11  1  0  0  0  0
 12 11  1  0  0  0  0
 12 15  1  1  0  0  0
 13 18  1  6  0  0  0
 13 12  1  0  0  0  0
 14 13  1  0  0  0  0
 14 20  1  1  0  0  0
 14 10  1  0  0  0  0
 16 15  1  0  0  0  0
 16 17  1  0  0  0  0
 19 18  1  0  0  0  0
 21 20  1  0  0  0  0
 22 26  1  6  0  0  0
 22  7  1  0  0  0  0
 23 22  1  0  0  0  0
 24 23  1  0  0  0  0
 25 23  1  0  0  0  0
 27 26  1  0  0  0  0
 28 29  1  0  0  0  0
 28  1  1  0  0  0  0
 30 28  1  0  0  0  0
M  END
>  <MODEL>
1

>  <REMARK>
 VINA RESULT:      -7.7      0.000      0.000
  8 active torsions:
  status: ('A' for Active; 'I' for Inactive)
    1  A    between atoms: N1_1  and  C1_2 
    2  A    between atoms: C5_8  and  C6_9 
    3  A    between atoms: C6_9  and  S1_11 
    4  A    between atoms: N5_13  and  C8_14 
    5  A    between atoms: C9_16  and  C10_17 
    6  A    between atoms: C10_17  and  O2_18 
    7  A    between atoms: C11_19  and  O3_20 
    8  A    between atoms: C12_21  and  O4_22 

>  <TORSDO>
F 8

$$$$
../pdbqt/decoy.vina_out.38.pdbqt
 OpenBabel06052021513D

 30 32  0  0  1  0  0  0  0  0999 V2000
  -28.1500   64.6540   26.9490 C   0  0  0  0  0  0  0  0  0  0  0  0
  -28.7830   65.2970   25.9230 N   0  0  0  0  0  0  0  0  0  0  0  0
  -28.0960   65.7840   24.8450 C   0  0  0  0  0  0  0  0  0  0  0  0
  -26.7400   65.6610   24.7770 N   0  0  0  0  0  0  0  0  0  0  0  0
  -26.0950   65.0250   25.7870 C   0  0  0  0  0  0  0  0  0  0  0  0
  -26.7620   64.4860   26.8520 C   0  0  0  0  0  0  0  0  0  0  0  0
  -25.7980   63.8590   27.6360 C   0  0  0  0  0  0  0  0  0  0  0  0
  -24.5810   64.0880   26.9990 C   0  0  0  0  0  0  0  0  0  0  0  0
  -24.7690   64.8090   25.8690 N   0  0  0  0  0  0  0  0  0  0  0  0
  -23.7390   65.1520   24.8850 C   0  0  2  0  0  0  0  0  0  0  0  0
  -22.5130   64.5390   25.2270 O   0  0  0  0  0  0  0  0  0  0  0  0
  -21.5050   65.5240   25.1550 C   0  0  2  0  0  0  0  0  0  0  0  0
  -22.0750   66.7740   24.4880 C   0  0  1  0  0  0  0  0  0  0  0  0
  -23.5400   66.6620   24.8110 C   0  0  1  0  0  0  0  0  0  0  0  0
  -20.2800   64.9720   24.4170 C   0  0  0  0  0  0  0  0  0  0  0  0
  -19.8570   65.8720   23.4300 O   0  0  0  0  0  0  0  0  0  0  0  0
  -20.0440   65.4330   22.5600 H   0  0  0  0  0  0  0  0  0  0  0  0
  -21.5140   67.9360   25.0400 O   0  0  0  0  0  0  0  0  0  0  0  0
  -20.5630   67.9490   24.7560 H   0  0  0  0  0  0  0  0  0  0  0  0
  -24.3200   67.2360   23.7940 O   0  0  0  0  0  0  0  0  0  0  0  0
  -24.1270   66.7180   22.9700 H   0  0  0  0  0  0  0  0  0  0  0  0
  -25.9770   62.9740   28.8010 C   0  0  1  0  0  0  0  0  0  0  0  0
  -26.0270   61.6850   28.6580 N   0  0  0  0  0  0  0  0  0  0  0  0
  -25.9490   61.2400   27.7150 H   0  0  0  0  0  0  0  0  0  0  0  0
  -26.1260   61.0630   29.4910 H   0  0  0  0  0  0  0  0  0  0  0  0
  -26.0040   63.6860   30.4440 S   0  0  0  0  0  0  0  0  0  0  0  0
  -25.8610   62.4230   31.0490 H   0  0  0  0  0  0  0  0  0  0  0  0
  -28.8970   64.2640   28.1010 N   0  0  0  0  0  0  0  0  0  0  0  0
  -28.7350   63.3490   28.5730 H   0  0  0  0  0  0  0  0  0  0  0  0
  -29.5060   64.9600   28.5840 H   0  0  0  0  0  0  0  0  0  0  0  0
  1 28  1  0  0  0  0
  2  1  2  0  0  0  0
  3  2  1  0  0  0  0
  4  3  2  0  0  0  0
  4  5  1  0  0  0  0
  5  9  1  0  0  0  0
  5  6  2  0  0  0  0
  6  1  1  0  0  0  0
  6  7  1  0  0  0  0
  7 22  1  0  0  0  0
  8  7  2  0  0  0  0
  9  8  1  0  0  0  0
 10 11  1  0  0  0  0
 10  9  1  1  0  0  0
 12 15  1  6  0  0  0
 12 11  1  0  0  0  0
 13 14  1  0  0  0  0
 13 18  1  1  0  0  0
 13 12  1  0  0  0  0
 14 20  1  6  0  0  0
 14 10  1  0  0  0  0
 16 15  1  0  0  0  0
 17 16  1  0  0  0  0
 19 18  1  0  0  0  0
 21 20  1  0  0  0  0
 22 26  1  1  0  0  0
 23 22  1  0  0  0  0
 23 25  1  0  0  0  0
 24 23  1  0  0  0  0
 26 27  1  0  0  0  0
 28 29  1  0  0  0  0
 28 30  1  0  0  0  0
M  END
>  <REMARK>
 VINA RESULT:      -7.6      2.295      3.893
  8 active torsions:
  status: ('A' for Active; 'I' for Inactive)
    1  A    between atoms: N1_1  and  C1_2 
    2  A    between atoms: C5_8  and  C6_9 
    3  A    between atoms: C6_9  and  S1_11 
    4  A    between atoms: N5_13  and  C8_14 
    5  A    between atoms: C9_16  and  C10_17 
    6  A    between atoms: C10_17  and  O2_18 
    7  A    between atoms: C11_19  and  O3_20 
    8  A    between atoms: C12_21  and  O4_22 

>  <TORSDO>
F 8

$$$$
../pdbqt/decoy.vina_out.38.pdbqt
 OpenBabel06052021513D

 30 32  0  0  1  0  0  0  0  0999 V2000
  -22.3200   63.2620   27.0790 C   0  0  0  0  0  0  0  0  0  0  0  0
  -22.9460   63.3810   28.2870 N   0  0  0  0  0  0  0  0  0  0  0  0
  -24.0830   64.1270   28.4390 C   0  0  0  0  0  0  0  0  0  0  0  0
  -24.6140   64.8000   27.3790 N   0  0  0  0  0  0  0  0  0  0  0  0
  -24.0050   64.6920   26.1710 C   0  0  0  0  0  0  0  0  0  0  0  0
  -22.8960   63.9150   25.9810 C   0  0  0  0  0  0  0  0  0  0  0  0
  -22.6000   63.9880   24.6230 C   0  0  0  0  0  0  0  0  0  0  0  0
  -23.5490   64.8450   24.0720 C   0  0  0  0  0  0  0  0  0  0  0  0
  -24.4040   65.2790   25.0270 N   0  0  0  0  0  0  0  0  0  0  0  0
  -25.5920   66.1070   24.8070 C   0  0  2  0  0  0  0  0  0  0  0  0
  -26.7640   65.3460   25.0130 O   0  0  0  0  0  0  0  0  0  0  0  0
  -27.6210   65.5720   23.9140 C   0  0  2  0  0  0  0  0  0  0  0  0
  -27.0760   66.7330   23.0860 C   0  0  1  0  0  0  0  0  0  0  0  0
  -25.6050   66.6740   23.3910 C   0  0  1  0  0  0  0  0  0  0  0  0
  -29.0520   65.8210   24.4050 C   0  0  0  0  0  0  0  0  0  0  0  0
  -29.9100   64.8160   23.9390 O   0  0  0  0  0  0  0  0  0  0  0  0
  -30.3440   64.4300   24.7440 H   0  0  0  0  0  0  0  0  0  0  0  0
  -27.3270   66.5340   21.7190 O   0  0  0  0  0  0  0  0  0  0  0  0
  -27.2610   65.5560   21.5620 H   0  0  0  0  0  0  0  0  0  0  0  0
  -25.0330   67.9550   23.3420 O   0  0  0  0  0  0  0  0  0  0  0  0
  -24.0970   67.8300   23.0350 H   0  0  0  0  0  0  0  0  0  0  0  0
  -21.6230   63.2110   23.8400 C   0  0  1  0  0  0  0  0  0  0  0  0
  -21.9380   62.0580   23.3330 N   0  0  0  0  0  0  0  0  0  0  0  0
  -22.8890   61.6470   23.4700 H   0  0  0  0  0  0  0  0  0  0  0  0
  -21.2490   61.5270   22.7560 H   0  0  0  0  0  0  0  0  0  0  0  0
  -20.0190   63.9270   23.4880 S   0  0  0  0  0  0  0  0  0  0  0  0
  -20.3800   65.1530   24.0760 H   0  0  0  0  0  0  0  0  0  0  0  0
  -21.0780   62.5640   26.9970 N   0  0  0  0  0  0  0  0  0  0  0  0
  -20.4730   62.4230   27.8340 H   0  0  0  0  0  0  0  0  0  0  0  0
  -20.8320   62.0420   26.1260 H   0  0  0  0  0  0  0  0  0  0  0  0
  1  2  2  0  0  0  0
  2  3  1  0  0  0  0
  4  3  2  0  0  0  0
  5  4  1  0  0  0  0
  6  5  2  0  0  0  0
  6  1  1  0  0  0  0
  7  6  1  0  0  0  0
  8  7  2  0  0  0  0
  8  9  1  0  0  0  0
  9  5  1  0  0  0  0
 10 11  1  0  0  0  0
 10  9  1  6  0  0  0
 12 15  1  1  0  0  0
 12 11  1  0  0  0  0
 13 18  1  6  0  0  0
 13 14  1  0  0  0  0
 13 12  1  0  0  0  0
 14 20  1  1  0  0  0
 14 10  1  0  0  0  0
 16 15  1  0  0  0  0
 16 17  1  0  0  0  0
 19 18  1  0  0  0  0
 21 20  1  0  0  0  0
 22 26  1  6  0  0  0
 22  7  1  0  0  0  0
 23 24  1  0  0  0  0
 23 22  1  0  0  0  0
 25 23  1  0  0  0  0
 26 27  1  0  0  0  0
 28  1  1  0  0  0  0
 28 29  1  0  0  0  0
 30 28  1  0  0  0  0
M  END
>  <REMARK>
 VINA RESULT:      -7.5      3.842      5.915
  8 active torsions:
  status: ('A' for Active; 'I' for Inactive)
    1  A    between atoms: N1_1  and  C1_2 
    2  A    between atoms: C5_8  and  C6_9 
    3  A    between atoms: C6_9  and  S1_11 
    4  A    between atoms: N5_13  and  C8_14 
    5  A    between atoms: C9_16  and  C10_17 
    6  A    between atoms: C10_17  and  O2_18 
    7  A    between atoms: C11_19  and  O3_20 
    8  A    between atoms: C12_21  and  O4_22 

>  <TORSDO>
F 8

$$$$
../pdbqt/decoy.vina_out.38.pdbqt
 OpenBabel06052021513D

 30 32  0  0  1  0  0  0  0  0999 V2000
  -27.4780   66.4970   24.2150 C   0  0  0  0  0  0  0  0  0  0  0  0
  -26.8890   67.2620   23.2480 N   0  0  0  0  0  0  0  0  0  0  0  0
  -25.5320   67.2960   23.0840 C   0  0  0  0  0  0  0  0  0  0  0  0
  -24.7180   66.5780   23.9090 N   0  0  0  0  0  0  0  0  0  0  0  0
  -25.2850   65.8130   24.8750 C   0  0  0  0  0  0  0  0  0  0  0  0
  -26.6410   65.7220   25.0290 C   0  0  0  0  0  0  0  0  0  0  0  0
  -26.8540   64.8030   26.0530 C   0  0  0  0  0  0  0  0  0  0  0  0
  -25.5880   64.4120   26.4820 C   0  0  0  0  0  0  0  0  0  0  0  0
  -24.6310   65.0390   25.7600 N   0  0  0  0  0  0  0  0  0  0  0  0
  -23.1880   64.8010   25.8530 C   0  0  2  0  0  0  0  0  0  0  0  0
  -22.8570   63.5650   25.2540 O   0  0  0  0  0  0  0  0  0  0  0  0
  -22.0280   62.8610   26.1540 C   0  0  2  0  0  0  0  0  0  0  0  0
  -21.6010   63.7990   27.2790 C   0  0  1  0  0  0  0  0  0  0  0  0
  -22.7310   64.7900   27.3080 C   0  0  1  0  0  0  0  0  0  0  0  0
  -20.8320   62.2570   25.4070 C   0  0  0  0  0  0  0  0  0  0  0  0
  -19.6940   62.2610   26.2240 O   0  0  0  0  0  0  0  0  0  0  0  0
  -19.6330   63.1750   26.6070 H   0  0  0  0  0  0  0  0  0  0  0  0
  -21.4930   63.1070   28.4950 O   0  0  0  0  0  0  0  0  0  0  0  0
  -21.9500   63.6650   29.1770 H   0  0  0  0  0  0  0  0  0  0  0  0
  -22.2770   66.0550   27.7150 O   0  0  0  0  0  0  0  0  0  0  0  0
  -21.4840   65.8930   28.2910 H   0  0  0  0  0  0  0  0  0  0  0  0
  -28.1160   64.1950   26.5110 C   0  0  1  0  0  0  0  0  0  0  0  0
  -28.9420   63.6570   25.6670 N   0  0  0  0  0  0  0  0  0  0  0  0
  -28.7400   63.6460   24.6420 H   0  0  0  0  0  0  0  0  0  0  0  0
  -29.8210   63.2040   26.0030 H   0  0  0  0  0  0  0  0  0  0  0  0
  -28.4500   64.0950   28.2680 S   0  0  0  0  0  0  0  0  0  0  0  0
  -28.6870   65.4790   28.3540 H   0  0  0  0  0  0  0  0  0  0  0  0
  -28.8880   66.5810   24.4160 N   0  0  0  0  0  0  0  0  0  0  0  0
  -29.5580   66.5420   23.6180 H   0  0  0  0  0  0  0  0  0  0  0  0
  -29.2790   66.5220   25.3820 H   0  0  0  0  0  0  0  0  0  0  0  0
  1 28  1  0  0  0  0
  1  6  2  0  0  0  0
  2  1  1  0  0  0  0
  3  2  2  0  0  0  0
  3  4  1  0  0  0  0
  4  5  2  0  0  0  0
  5  6  1  0  0  0  0
  5  9  1  0  0  0  0
  6  7  1  0  0  0  0
  7  8  2  0  0  0  0
  7 22  1  0  0  0  0
  9  8  1  0  0  0  0
 10  9  1  1  0  0  0
 10 14  1  0  0  0  0
 11 10  1  0  0  0  0
 11 12  1  0  0  0  0
 12 15  1  6  0  0  0
 12 13  1  0  0  0  0
 13 14  1  0  0  0  0
 13 18  1  1  0  0  0
 14 20  1  6  0  0  0
 15 16  1  0  0  0  0
 16 17  1  0  0  0  0
 18 19  1  0  0  0  0
 20 21  1  0  0  0  0
 22 26  1  1  0  0  0
 23 25  1  0  0  0  0
 23 22  1  0  0  0  0
 24 23  1  0  0  0  0
 26 27  1  0  0  0  0
 28 30  1  0  0  0  0
 29 28  1  0  0  0  0
M  END
>  <REMARK>
 VINA RESULT:      -7.5      2.776      4.268
  8 active torsions:
  status: ('A' for Active; 'I' for Inactive)
    1  A    between atoms: N1_1  and  C1_2 
    2  A    between atoms: C5_8  and  C6_9 
    3  A    between atoms: C6_9  and  S1_11 
    4  A    between atoms: N5_13  and  C8_14 
    5  A    between atoms: C9_16  and  C10_17 
    6  A    between atoms: C10_17  and  O2_18 
    7  A    between atoms: C11_19  and  O3_20 
    8  A    between atoms: C12_21  and  O4_22 

>  <TORSDO>
F 8

$$$$
../pdbqt/decoy.vina_out.38.pdbqt
 OpenBabel06052021513D

 30 32  0  0  1  0  0  0  0  0999 V2000
  -28.1890   64.9620   26.5930 C   0  0  0  0  0  0  0  0  0  0  0  0
  -28.7480   65.4350   25.4390 N   0  0  0  0  0  0  0  0  0  0  0  0
  -27.9940   65.7000   24.3290 C   0  0  0  0  0  0  0  0  0  0  0  0
  -26.6420   65.5200   24.3540 N   0  0  0  0  0  0  0  0  0  0  0  0
  -26.0710   65.0520   25.4920 C   0  0  0  0  0  0  0  0  0  0  0  0
  -26.8070   64.7330   26.5990 C   0  0  0  0  0  0  0  0  0  0  0  0
  -25.9070   64.2220   27.5300 C   0  0  0  0  0  0  0  0  0  0  0  0
  -24.6540   64.2940   26.9260 C   0  0  0  0  0  0  0  0  0  0  0  0
  -24.7600   64.8090   25.6790 N   0  0  0  0  0  0  0  0  0  0  0  0
  -23.6730   64.9370   24.7050 C   0  0  2  0  0  0  0  0  0  0  0  0
  -23.0780   63.6780   24.4680 O   0  0  0  0  0  0  0  0  0  0  0  0
  -21.6790   63.8390   24.5640 C   0  0  2  0  0  0  0  0  0  0  0  0
  -21.3500   65.3290   24.6170 C   0  0  1  0  0  0  0  0  0  0  0  0
  -22.6070   65.9080   25.2050 C   0  0  1  0  0  0  0  0  0  0  0  0
  -20.9850   63.1260   23.3990 C   0  0  0  0  0  0  0  0  0  0  0  0
  -21.8480   62.1880   22.8160 O   0  0  0  0  0  0  0  0  0  0  0  0
  -21.3670   61.8250   22.0270 H   0  0  0  0  0  0  0  0  0  0  0  0
  -20.2400   65.5670   25.4430 O   0  0  0  0  0  0  0  0  0  0  0  0
  -19.8630   64.6770   25.6690 H   0  0  0  0  0  0  0  0  0  0  0  0
  -22.8290   67.2090   24.7250 O   0  0  0  0  0  0  0  0  0  0  0  0
  -23.8130   67.3090   24.6400 H   0  0  0  0  0  0  0  0  0  0  0  0
  -26.1750   63.5630   28.8200 C   0  0  1  0  0  0  0  0  0  0  0  0
  -26.3200   64.2580   29.9070 N   0  0  0  0  0  0  0  0  0  0  0  0
  -26.2440   65.3000   29.8990 H   0  0  0  0  0  0  0  0  0  0  0  0
  -26.5380   63.7860   30.8120 H   0  0  0  0  0  0  0  0  0  0  0  0
  -26.4230   61.7890   28.8610 S   0  0  0  0  0  0  0  0  0  0  0  0
  -27.5410   61.8750   28.0100 H   0  0  0  0  0  0  0  0  0  0  0  0
  -29.0030   64.8070   27.7550 N   0  0  0  0  0  0  0  0  0  0  0  0
  -29.9850   64.4610   27.6940 H   0  0  0  0  0  0  0  0  0  0  0  0
  -28.5730   64.8860   28.7040 H   0  0  0  0  0  0  0  0  0  0  0  0
  1  6  1  0  0  0  0
  1 28  1  0  0  0  0
  2  1  2  0  0  0  0
  3  4  2  0  0  0  0
  3  2  1  0  0  0  0
  4  5  1  0  0  0  0
  5  9  1  0  0  0  0
  5  6  2  0  0  0  0
  6  7  1  0  0  0  0
  7 22  1  0  0  0  0
  8  7  2  0  0  0  0
  9  8  1  0  0  0  0
 10 14  1  0  0  0  0
 10  9  1  1  0  0  0
 11 12  1  0  0  0  0
 11 10  1  0  0  0  0
 12 15  1  6  0  0  0
 12 13  1  0  0  0  0
 13 14  1  0  0  0  0
 13 18  1  1  0  0  0
 14 20  1  6  0  0  0
 16 15  1  0  0  0  0
 17 16  1  0  0  0  0
 18 19  1  0  0  0  0
 21 20  1  0  0  0  0
 22 26  1  6  0  0  0
 22 23  1  0  0  0  0
 23 25  1  0  0  0  0
 24 23  1  0  0  0  0
 27 26  1  0  0  0  0
 28 30  1  0  0  0  0
 29 28  1  0  0  0  0
M  END
>  <REMARK>
 VINA RESULT:      -7.3      2.434      4.282
  8 active torsions:
  status: ('A' for Active; 'I' for Inactive)
    1  A    between atoms: N1_1  and  C1_2 
    2  A    between atoms: C5_8  and  C6_9 
    3  A    between atoms: C6_9  and  S1_11 
    4  A    between atoms: N5_13  and  C8_14 
    5  A    between atoms: C9_16  and  C10_17 
    6  A    between atoms: C10_17  and  O2_18 
    7  A    between atoms: C11_19  and  O3_20 
    8  A    between atoms: C12_21  and  O4_22 

>  <TORSDO>
F 8

$$$$
../pdbqt/decoy.vina_out.38.pdbqt
 OpenBabel06052021513D

 30 32  0  0  1  0  0  0  0  0999 V2000
  -26.4430   65.4490   25.4400 C   0  0  0  0  0  0  0  0  0  0  0  0
  -26.8860   66.1090   24.3290 N   0  0  0  0  0  0  0  0  0  0  0  0
  -26.0340   66.8080   23.5190 C   0  0  0  0  0  0  0  0  0  0  0  0
  -24.7060   66.8870   23.8180 N   0  0  0  0  0  0  0  0  0  0  0  0
  -24.2480   66.2380   24.9180 C   0  0  0  0  0  0  0  0  0  0  0  0
  -25.0700   65.4910   25.7170 C   0  0  0  0  0  0  0  0  0  0  0  0
  -24.2520   64.9210   26.6880 C   0  0  0  0  0  0  0  0  0  0  0  0
  -22.9680   65.3920   26.4290 C   0  0  0  0  0  0  0  0  0  0  0  0
  -22.9730   66.2040   25.3460 N   0  0  0  0  0  0  0  0  0  0  0  0
  -21.7940   66.7990   24.7110 C   0  0  2  0  0  0  0  0  0  0  0  0
  -20.8990   65.7890   24.2970 O   0  0  0  0  0  0  0  0  0  0  0  0
  -19.6100   66.1470   24.7460 C   0  0  2  0  0  0  0  0  0  0  0  0
  -19.6400   67.5860   25.2560 C   0  0  1  0  0  0  0  0  0  0  0  0
  -21.0770   67.7410   25.6720 C   0  0  1  0  0  0  0  0  0  0  0  0
  -18.5850   65.9430   23.6240 C   0  0  0  0  0  0  0  0  0  0  0  0
  -17.6870   67.0180   23.5810 O   0  0  0  0  0  0  0  0  0  0  0  0
  -16.7790   66.6210   23.6400 H   0  0  0  0  0  0  0  0  0  0  0  0
  -18.7690   67.7500   26.3440 O   0  0  0  0  0  0  0  0  0  0  0  0
  -17.8510   67.7770   25.9660 H   0  0  0  0  0  0  0  0  0  0  0  0
  -21.5030   69.0690   25.5080 O   0  0  0  0  0  0  0  0  0  0  0  0
  -21.8840   69.3480   26.3820 H   0  0  0  0  0  0  0  0  0  0  0  0
  -24.5770   63.8920   27.6920 C   0  0  1  0  0  0  0  0  0  0  0  0
  -24.8220   62.6680   27.3380 N   0  0  0  0  0  0  0  0  0  0  0  0
  -24.8010   62.3790   26.3330 H   0  0  0  0  0  0  0  0  0  0  0  0
  -25.0230   61.9380   28.0570 H   0  0  0  0  0  0  0  0  0  0  0  0
  -24.5140   64.3170   29.4310 S   0  0  0  0  0  0  0  0  0  0  0  0
  -23.6290   63.2590   29.7100 H   0  0  0  0  0  0  0  0  0  0  0  0
  -27.3880   64.8270   26.3110 N   0  0  0  0  0  0  0  0  0  0  0  0
  -27.9130   65.3730   27.0270 H   0  0  0  0  0  0  0  0  0  0  0  0
  -27.6840   63.8410   26.1350 H   0  0  0  0  0  0  0  0  0  0  0  0
  1  6  1  0  0  0  0
  1 28  1  0  0  0  0
  2  1  2  0  0  0  0
  3  4  2  0  0  0  0
  3  2  1  0  0  0  0
  4  5  1  0  0  0  0
  5  9  1  0  0  0  0
  5  6  2  0  0  0  0
  6  7  1  0  0  0  0
  7 22  1  0  0  0  0
  8  7  2  0  0  0  0
  9  8  1  0  0  0  0
 10  9  1  1  0  0  0
 10 14  1  0  0  0  0
 11 10  1  0  0  0  0
 11 12  1  0  0  0  0
 12 15  1  6  0  0  0
 12 13  1  0  0  0  0
 13 14  1  0  0  0  0
 13 18  1  1  0  0  0
 14 20  1  6  0  0  0
 16 15  1  0  0  0  0
 16 17  1  0  0  0  0
 19 18  1  0  0  0  0
 20 21  1  0  0  0  0
 22 26  1  1  0  0  0
 23 22  1  0  0  0  0
 23 25  1  0  0  0  0
 24 23  1  0  0  0  0
 26 27  1  0  0  0  0
 28 29  1  0  0  0  0
 30 28  1  0  0  0  0
M  END
>  <REMARK>
 VINA RESULT:      -7.2      2.017      3.606
  8 active torsions:
  status: ('A' for Active; 'I' for Inactive)
    1  A    between atoms: N1_1  and  C1_2 
    2  A    between atoms: C5_8  and  C6_9 
    3  A    between atoms: C6_9  and  S1_11 
    4  A    between atoms: N5_13  and  C8_14 
    5  A    between atoms: C9_16  and  C10_17 
    6  A    between atoms: C10_17  and  O2_18 
    7  A    between atoms: C11_19  and  O3_20 
    8  A    between atoms: C12_21  and  O4_22 

>  <TORSDO>
F 8

$$$$
../pdbqt/decoy.vina_out.38.pdbqt
 OpenBabel06052021513D

 30 32  0  0  1  0  0  0  0  0999 V2000
  -26.7530   66.0730   23.8200 C   0  0  0  0  0  0  0  0  0  0  0  0
  -28.1160   66.1720   23.7830 N   0  0  0  0  0  0  0  0  0  0  0  0
  -28.8950   65.7760   24.8350 C   0  0  0  0  0  0  0  0  0  0  0  0
  -28.3270   65.2400   25.9520 N   0  0  0  0  0  0  0  0  0  0  0  0
  -26.9750   65.1340   26.0060 C   0  0  0  0  0  0  0  0  0  0  0  0
  -26.1690   65.5680   24.9890 C   0  0  0  0  0  0  0  0  0  0  0  0
  -24.8610   65.3710   25.4200 C   0  0  0  0  0  0  0  0  0  0  0  0
  -24.9600   64.7910   26.6830 C   0  0  0  0  0  0  0  0  0  0  0  0
  -26.2580   64.6430   27.0340 N   0  0  0  0  0  0  0  0  0  0  0  0
  -26.7510   64.1680   28.3290 C   0  0  2  0  0  0  0  0  0  0  0  0
  -25.9280   64.6490   29.3710 O   0  0  0  0  0  0  0  0  0  0  0  0
  -25.6130   63.5570   30.2080 C   0  0  2  0  0  0  0  0  0  0  0  0
  -26.4860   62.3650   29.8240 C   0  0  1  0  0  0  0  0  0  0  0  0
  -26.7790   62.6440   28.3750 C   0  0  1  0  0  0  0  0  0  0  0  0
  -25.7790   63.9550   31.6790 C   0  0  0  0  0  0  0  0  0  0  0  0
  -24.5380   63.9530   32.3290 O   0  0  0  0  0  0  0  0  0  0  0  0
  -23.9240   63.4310   31.7490 H   0  0  0  0  0  0  0  0  0  0  0  0
  -25.7850   61.1590   29.9830 O   0  0  0  0  0  0  0  0  0  0  0  0
  -26.3750   60.5600   30.5110 H   0  0  0  0  0  0  0  0  0  0  0  0
  -28.0380   62.1390   28.0140 O   0  0  0  0  0  0  0  0  0  0  0  0
  -28.1300   62.2940   27.0380 H   0  0  0  0  0  0  0  0  0  0  0  0
  -23.6000   65.8200   24.8040 C   0  0  1  0  0  0  0  0  0  0  0  0
  -23.4340   67.0580   24.4510 N   0  0  0  0  0  0  0  0  0  0  0  0
  -24.1890   67.7670   24.5880 H   0  0  0  0  0  0  0  0  0  0  0  0
  -22.5270   67.3750   24.0420 H   0  0  0  0  0  0  0  0  0  0  0  0
  -22.2400   64.6640   24.6540 S   0  0  0  0  0  0  0  0  0  0  0  0
  -22.9670   63.8460   23.7690 H   0  0  0  0  0  0  0  0  0  0  0  0
  -25.9940   66.3970   22.6550 N   0  0  0  0  0  0  0  0  0  0  0  0
  -26.1650   67.2730   22.1170 H   0  0  0  0  0  0  0  0  0  0  0  0
  -25.1450   65.8380   22.4180 H   0  0  0  0  0  0  0  0  0  0  0  0
  1  6  1  0  0  0  0
  2  1  2  0  0  0  0
  2  3  1  0  0  0  0
  3  4  2  0  0  0  0
  4  5  1  0  0  0  0
  5  9  1  0  0  0  0
  6  7  1  0  0  0  0
  6  5  2  0  0  0  0
  7  8  2  0  0  0  0
  8  9  1  0  0  0  0
 10  9  1  6  0  0  0
 10 14  1  0  0  0  0
 10 11  1  0  0  0  0
 11 12  1  0  0  0  0
 12 15  1  1  0  0  0
 13 18  1  6  0  0  0
 13 12  1  0  0  0  0
 14 20  1  1  0  0  0
 14 13  1  0  0  0  0
 15 16  1  0  0  0  0
 17 16  1  0  0  0  0
 18 19  1  0  0  0  0
 21 20  1  0  0  0  0
 22 26  1  1  0  0  0
 22  7  1  0  0  0  0
 23 24  1  0  0  0  0
 23 22  1  0  0  0  0
 25 23  1  0  0  0  0
 27 26  1  0  0  0  0
 28  1  1  0  0  0  0
 29 28  1  0  0  0  0
 30 28  1  0  0  0  0
M  END
>  <REMARK>
 VINA RESULT:      -7.1      4.008      6.143
  8 active torsions:
  status: ('A' for Active; 'I' for Inactive)
    1  A    between atoms: N1_1  and  C1_2 
    2  A    between atoms: C5_8  and  C6_9 
    3  A    between atoms: C6_9  and  S1_11 
    4  A    between atoms: N5_13  and  C8_14 
    5  A    between atoms: C9_16  and  C10_17 
    6  A    between atoms: C10_17  and  O2_18 
    7  A    between atoms: C11_19  and  O3_20 
    8  A    between atoms: C12_21  and  O4_22 

>  <TORSDO>
F 8

$$$$
../pdbqt/decoy.vina_out.38.pdbqt
 OpenBabel06052021513D

 30 32  0  0  1  0  0  0  0  0999 V2000
  -26.5640   65.2820   25.5970 C   0  0  0  0  0  0  0  0  0  0  0  0
  -26.5280   65.9110   24.3850 N   0  0  0  0  0  0  0  0  0  0  0  0
  -25.3630   66.4050   23.8650 C   0  0  0  0  0  0  0  0  0  0  0  0
  -24.1970   66.3040   24.5640 N   0  0  0  0  0  0  0  0  0  0  0  0
  -24.2140   65.6820   25.7690 C   0  0  0  0  0  0  0  0  0  0  0  0
  -25.3550   65.1350   26.2900 C   0  0  0  0  0  0  0  0  0  0  0  0
  -24.9820   64.5270   27.4850 C   0  0  0  0  0  0  0  0  0  0  0  0
  -23.6190   64.7740   27.6290 C   0  0  0  0  0  0  0  0  0  0  0  0
  -23.1560   65.4870   26.5770 N   0  0  0  0  0  0  0  0  0  0  0  0
  -21.7560   65.8430   26.3280 C   0  0  2  0  0  0  0  0  0  0  0  0
  -21.4870   67.1400   26.8170 O   0  0  0  0  0  0  0  0  0  0  0  0
  -20.8150   67.8520   25.8000 C   0  0  2  0  0  0  0  0  0  0  0  0
  -20.4090   66.8800   24.6950 C   0  0  1  0  0  0  0  0  0  0  0  0
  -21.4400   65.7950   24.8370 C   0  0  1  0  0  0  0  0  0  0  0  0
  -19.6160   68.6060   26.3890 C   0  0  0  0  0  0  0  0  0  0  0  0
  -19.1270   69.5410   25.4670 O   0  0  0  0  0  0  0  0  0  0  0  0
  -18.3530   69.1090   25.0210 H   0  0  0  0  0  0  0  0  0  0  0  0
  -20.4800   67.4960   23.4360 O   0  0  0  0  0  0  0  0  0  0  0  0
  -19.5490   67.7340   23.1880 H   0  0  0  0  0  0  0  0  0  0  0  0
  -20.9100   64.5500   24.4610 O   0  0  0  0  0  0  0  0  0  0  0  0
  -20.1490   64.3770   25.0740 H   0  0  0  0  0  0  0  0  0  0  0  0
  -25.7680   63.6420   28.3640 C   0  0  1  0  0  0  0  0  0  0  0  0
  -26.7520   64.1070   29.0710 N   0  0  0  0  0  0  0  0  0  0  0  0
  -27.0100   65.1190   29.0430 H   0  0  0  0  0  0  0  0  0  0  0  0
  -27.3220   63.4690   29.6700 H   0  0  0  0  0  0  0  0  0  0  0  0
  -25.4320   61.8830   28.3590 S   0  0  0  0  0  0  0  0  0  0  0  0
  -25.3030   61.8600   26.9570 H   0  0  0  0  0  0  0  0  0  0  0  0
  -27.8210   64.8830   26.1440 N   0  0  0  0  0  0  0  0  0  0  0  0
  -28.5600   64.4440   25.5540 H   0  0  0  0  0  0  0  0  0  0  0  0
  -27.9580   64.8790   27.1790 H   0  0  0  0  0  0  0  0  0  0  0  0
  1 28  1  0  0  0  0
  1  6  2  0  0  0  0
  2  1  1  0  0  0  0
  3  2  2  0  0  0  0
  3  4  1  0  0  0  0
  4  5  2  0  0  0  0
  5  6  1  0  0  0  0
  5  9  1  0  0  0  0
  6  7  1  0  0  0  0
  7  8  2  0  0  0  0
  7 22  1  0  0  0  0
  9  8  1  0  0  0  0
 10  9  1  6  0  0  0
 10 11  1  0  0  0  0
 12 15  1  1  0  0  0
 12 11  1  0  0  0  0
 13 18  1  6  0  0  0
 13 14  1  0  0  0  0
 13 12  1  0  0  0  0
 14 20  1  1  0  0  0
 14 10  1  0  0  0  0
 16 15  1  0  0  0  0
 17 16  1  0  0  0  0
 19 18  1  0  0  0  0
 20 21  1  0  0  0  0
 22 26  1  6  0  0  0
 22 23  1  0  0  0  0
 23 25  1  0  0  0  0
 24 23  1  0  0  0  0
 27 26  1  0  0  0  0
 28 30  1  0  0  0  0
 29 28  1  0  0  0  0
M  END
>  <REMARK>
 VINA RESULT:      -7.1      1.868      3.166
  8 active torsions:
  status: ('A' for Active; 'I' for Inactive)
    1  A    between atoms: N1_1  and  C1_2 
    2  A    between atoms: C5_8  and  C6_9 
    3  A    between atoms: C6_9  and  S1_11 
    4  A    between atoms: N5_13  and  C8_14 
    5  A    between atoms: C9_16  and  C10_17 
    6  A    between atoms: C10_17  and  O2_18 
    7  A    between atoms: C11_19  and  O3_20 
    8  A    between atoms: C12_21  and  O4_22 

>  <TORSDO>
F 8

$$$$
../pdbqt/decoy.vina_out.38.pdbqt
 OpenBabel06052021513D

 30 32  0  0  1  0  0  0  0  0999 V2000
  -20.1430   65.6180   25.0150 C   0  0  0  0  0  0  0  0  0  0  0  0
  -19.9030   66.8860   25.4640 N   0  0  0  0  0  0  0  0  0  0  0  0
  -20.9190   67.7740   25.6900 C   0  0  0  0  0  0  0  0  0  0  0  0
  -22.2130   67.4200   25.4430 N   0  0  0  0  0  0  0  0  0  0  0  0
  -22.4690   66.1660   24.9960 C   0  0  0  0  0  0  0  0  0  0  0  0
  -21.4770   65.2420   24.8090 C   0  0  0  0  0  0  0  0  0  0  0  0
  -22.1110   64.0650   24.4230 C   0  0  0  0  0  0  0  0  0  0  0  0
  -23.4700   64.3650   24.3710 C   0  0  0  0  0  0  0  0  0  0  0  0
  -23.6820   65.6550   24.7160 N   0  0  0  0  0  0  0  0  0  0  0  0
  -24.9880   66.2990   24.8780 C   0  0  2  0  0  0  0  0  0  0  0  0
  -25.8900   65.4230   25.5210 O   0  0  0  0  0  0  0  0  0  0  0  0
  -27.0900   65.4220   24.7790 C   0  0  2  0  0  0  0  0  0  0  0  0
  -27.0430   66.5480   23.7490 C   0  0  1  0  0  0  0  0  0  0  0  0
  -25.5640   66.7070   23.5250 C   0  0  1  0  0  0  0  0  0  0  0  0
  -28.2930   65.5390   25.7220 C   0  0  0  0  0  0  0  0  0  0  0  0
  -27.9930   64.9760   26.9690 O   0  0  0  0  0  0  0  0  0  0  0  0
  -28.6270   65.3830   27.6150 H   0  0  0  0  0  0  0  0  0  0  0  0
  -27.7050   66.1750   22.5690 O   0  0  0  0  0  0  0  0  0  0  0  0
  -27.9670   67.0190   22.1170 H   0  0  0  0  0  0  0  0  0  0  0  0
  -25.2470   68.0370   23.2090 O   0  0  0  0  0  0  0  0  0  0  0  0
  -25.0310   68.0490   22.2400 H   0  0  0  0  0  0  0  0  0  0  0  0
  -21.5470   62.7130   24.2660 C   0  0  1  0  0  0  0  0  0  0  0  0
  -21.6120   61.8460   25.2290 N   0  0  0  0  0  0  0  0  0  0  0  0
  -22.0580   62.0830   26.1430 H   0  0  0  0  0  0  0  0  0  0  0  0
  -21.2350   60.8810   25.0990 H   0  0  0  0  0  0  0  0  0  0  0  0
  -20.8720   62.2270   22.6790 S   0  0  0  0  0  0  0  0  0  0  0  0
  -22.1530   62.1460   22.1010 H   0  0  0  0  0  0  0  0  0  0  0  0
  -19.0420   64.7680   24.6910 N   0  0  0  0  0  0  0  0  0  0  0  0
  -18.9030   64.3970   23.7270 H   0  0  0  0  0  0  0  0  0  0  0  0
  -18.2700   64.6350   25.3800 H   0  0  0  0  0  0  0  0  0  0  0  0
  1  2  2  0  0  0  0
  2  3  1  0  0  0  0
  4  3  2  0  0  0  0
  5  4  1  0  0  0  0
  6  5  2  0  0  0  0
  6  1  1  0  0  0  0
  7  6  1  0  0  0  0
  8  7  2  0  0  0  0
  8  9  1  0  0  0  0
  9  5  1  0  0  0  0
 10  9  1  6  0  0  0
 10 11  1  0  0  0  0
 12 11  1  0  0  0  0
 12 15  1  1  0  0  0
 13 18  1  6  0  0  0
 13 12  1  0  0  0  0
 14 20  1  1  0  0  0
 14 13  1  0  0  0  0
 14 10  1  0  0  0  0
 15 16  1  0  0  0  0
 16 17  1  0  0  0  0
 19 18  1  0  0  0  0
 21 20  1  0  0  0  0
 22 26  1  6  0  0  0
 22  7  1  0  0  0  0
 22 23  1  0  0  0  0
 23 24  1  0  0  0  0
 25 23  1  0  0  0  0
 27 26  1  0  0  0  0
 28  1  1  0  0  0  0
 28 30  1  0  0  0  0
 29 28  1  0  0  0  0
M  END
>  <REMARK>
 VINA RESULT:      -7.1      3.687      6.368
  8 active torsions:
  status: ('A' for Active; 'I' for Inactive)
    1  A    between atoms: N1_1  and  C1_2 
    2  A    between atoms: C5_8  and  C6_9 
    3  A    between atoms: C6_9  and  S1_11 
    4  A    between atoms: N5_13  and  C8_14 
    5  A    between atoms: C9_16  and  C10_17 
    6  A    between atoms: C10_17  and  O2_18 
    7  A    between atoms: C11_19  and  O3_20 
    8  A    between atoms: C12_21  and  O4_22 

>  <TORSDO>
F 8

$$$$
