../pdbqt/decoy.vina_out.22.pdbqt
 OpenBabel06052021513D

 12 13  0  0  0  0  0  0  0  0999 V2000
  -25.6070   67.3730   22.5000 O   0  0  0  0  0  0  0  0  0  0  0  0
  -25.5280   66.6510   23.6870 C   0  0  0  0  0  0  0  0  0  0  0  0
  -24.3070   66.5780   24.3620 C   0  0  0  0  0  0  0  0  0  0  0  0
  -24.2190   65.8580   25.5540 C   0  0  0  0  0  0  0  0  0  0  0  0
  -25.3150   65.2300   26.0540 N   0  0  0  0  0  0  0  0  0  0  0  0
  -26.5230   65.2790   25.4270 C   0  0  0  0  0  0  0  0  0  0  0  0
  -27.6350   64.6190   25.9750 C   0  0  0  0  0  0  0  0  0  0  0  0
  -27.5000   63.7150   27.4780 Cl  0  0  0  0  0  0  0  0  0  0  0  0
  -28.8700   64.6750   25.3210 C   0  0  0  0  0  0  0  0  0  0  0  0
  -29.0040   65.3850   24.1260 C   0  0  0  0  0  0  0  0  0  0  0  0
  -27.9040   66.0460   23.5710 C   0  0  0  0  0  0  0  0  0  0  0  0
  -26.6560   65.9990   24.2150 C   0  0  0  0  0  0  0  0  0  0  0  0
  1  2  1  0  0  0  0
  2 12  2  0  0  0  0
  2  3  1  0  0  0  0
  3  4  2  0  0  0  0
  4  5  1  0  0  0  0
  6  7  1  0  0  0  0
  6  5  2  0  0  0  0
  7  8  1  0  0  0  0
  9  7  2  0  0  0  0
 10  9  1  0  0  0  0
 11 10  2  0  0  0  0
 11 12  1  0  0  0  0
 12  6  1  0  0  0  0
M  END
>  <MODEL>
1

>  <REMARK>
 VINA RESULT:      -7.3      0.000      0.000
  0 active torsions:
  status: ('A' for Active; 'I' for Inactive)

>  <TORSDO>
F 0

$$$$
../pdbqt/decoy.vina_out.22.pdbqt
 OpenBabel06052021513D

 12 13  0  0  0  0  0  0  0  0999 V2000
  -28.2280   66.5580   22.5300 O   0  0  0  0  0  0  0  0  0  0  0  0
  -27.9980   65.8760   23.7210 C   0  0  0  0  0  0  0  0  0  0  0  0
  -29.0500   65.1840   24.3260 C   0  0  0  0  0  0  0  0  0  0  0  0
  -28.8280   64.4970   25.5200 C   0  0  0  0  0  0  0  0  0  0  0  0
  -27.5950   64.5030   26.0920 N   0  0  0  0  0  0  0  0  0  0  0  0
  -26.5440   65.1650   25.5330 C   0  0  0  0  0  0  0  0  0  0  0  0
  -25.2840   65.1480   26.1520 C   0  0  0  0  0  0  0  0  0  0  0  0
  -25.0280   64.2770   27.6580 Cl  0  0  0  0  0  0  0  0  0  0  0  0
  -24.2120   65.8330   25.5690 C   0  0  0  0  0  0  0  0  0  0  0  0
  -24.3890   66.5330   24.3730 C   0  0  0  0  0  0  0  0  0  0  0  0
  -25.6390   66.5560   23.7490 C   0  0  0  0  0  0  0  0  0  0  0  0
  -26.7260   65.8750   24.3210 C   0  0  0  0  0  0  0  0  0  0  0  0
  1  2  1  0  0  0  0
  2 12  2  0  0  0  0
  2  3  1  0  0  0  0
  3  4  2  0  0  0  0
  4  5  1  0  0  0  0
  6  5  2  0  0  0  0
  6  7  1  0  0  0  0
  7  8  1  0  0  0  0
  9  7  2  0  0  0  0
 10  9  1  0  0  0  0
 11 12  1  0  0  0  0
 11 10  2  0  0  0  0
 12  6  1  0  0  0  0
M  END
>  <REMARK>
 VINA RESULT:      -7.2      1.355      3.304
  0 active torsions:
  status: ('A' for Active; 'I' for Inactive)

>  <TORSDO>
F 0

$$$$
../pdbqt/decoy.vina_out.22.pdbqt
 OpenBabel06052021513D

 12 13  0  0  0  0  0  0  0  0999 V2000
  -28.3340   66.5830   22.7690 O   0  0  0  0  0  0  0  0  0  0  0  0
  -27.2100   66.3920   23.5670 C   0  0  0  0  0  0  0  0  0  0  0  0
  -26.0060   67.0060   23.2120 C   0  0  0  0  0  0  0  0  0  0  0  0
  -24.8760   66.8190   24.0070 C   0  0  0  0  0  0  0  0  0  0  0  0
  -24.9440   66.0440   25.1210 N   0  0  0  0  0  0  0  0  0  0  0  0
  -26.0990   65.4300   25.5010 C   0  0  0  0  0  0  0  0  0  0  0  0
  -26.1330   64.6370   26.6600 C   0  0  0  0  0  0  0  0  0  0  0  0
  -24.6940   64.4160   27.6460 Cl  0  0  0  0  0  0  0  0  0  0  0  0
  -27.3240   64.0100   27.0400 C   0  0  0  0  0  0  0  0  0  0  0  0
  -28.4810   64.1700   26.2740 C   0  0  0  0  0  0  0  0  0  0  0  0
  -28.4590   64.9570   25.1190 C   0  0  0  0  0  0  0  0  0  0  0  0
  -27.2700   65.5930   24.7220 C   0  0  0  0  0  0  0  0  0  0  0  0
  1  2  1  0  0  0  0
  2 12  1  0  0  0  0
  3  2  2  0  0  0  0
  3  4  1  0  0  0  0
  4  5  2  0  0  0  0
  5  6  1  0  0  0  0
  6  7  2  0  0  0  0
  7  9  1  0  0  0  0
  7  8  1  0  0  0  0
 10  9  2  0  0  0  0
 11 10  1  0  0  0  0
 12 11  2  0  0  0  0
 12  6  1  0  0  0  0
M  END
>  <REMARK>
 VINA RESULT:      -7.1      1.510      2.021
  0 active torsions:
  status: ('A' for Active; 'I' for Inactive)

>  <TORSDO>
F 0

$$$$
../pdbqt/decoy.vina_out.22.pdbqt
 OpenBabel06052021513D

 12 13  0  0  0  0  0  0  0  0999 V2000
  -26.3780   67.4280   22.5630 O   0  0  0  0  0  0  0  0  0  0  0  0
  -27.0360   66.6100   23.4770 C   0  0  0  0  0  0  0  0  0  0  0  0
  -28.4100   66.3970   23.3390 C   0  0  0  0  0  0  0  0  0  0  0  0
  -29.0770   65.5780   24.2510 C   0  0  0  0  0  0  0  0  0  0  0  0
  -28.3930   64.9900   25.2680 N   0  0  0  0  0  0  0  0  0  0  0  0
  -27.0540   65.1710   25.4350 C   0  0  0  0  0  0  0  0  0  0  0  0
  -26.3800   64.5470   26.4970 C   0  0  0  0  0  0  0  0  0  0  0  0
  -27.2420   63.5190   27.6350 Cl  0  0  0  0  0  0  0  0  0  0  0  0
  -25.0050   64.7410   26.6600 C   0  0  0  0  0  0  0  0  0  0  0  0
  -24.2970   65.5530   25.7700 C   0  0  0  0  0  0  0  0  0  0  0  0
  -24.9570   66.1800   24.7100 C   0  0  0  0  0  0  0  0  0  0  0  0
  -26.3380   65.9960   24.5320 C   0  0  0  0  0  0  0  0  0  0  0  0
  1  2  1  0  0  0  0
  2 12  1  0  0  0  0
  3  2  2  0  0  0  0
  3  4  1  0  0  0  0
  4  5  2  0  0  0  0
  5  6  1  0  0  0  0
  6  7  2  0  0  0  0
  7  9  1  0  0  0  0
  7  8  1  0  0  0  0
 10  9  2  0  0  0  0
 11 10  1  0  0  0  0
 12 11  2  0  0  0  0
 12  6  1  0  0  0  0
M  END
>  <REMARK>
 VINA RESULT:      -7.0      1.244      3.034
  0 active torsions:
  status: ('A' for Active; 'I' for Inactive)

>  <TORSDO>
F 0

$$$$
../pdbqt/decoy.vina_out.22.pdbqt
 OpenBabel06052021513D

 12 13  0  0  0  0  0  0  0  0999 V2000
  -23.4860   65.6640   25.9950 O   0  0  0  0  0  0  0  0  0  0  0  0
  -24.6180   65.9400   25.2350 C   0  0  0  0  0  0  0  0  0  0  0  0
  -24.5090   66.7880   24.1290 C   0  0  0  0  0  0  0  0  0  0  0  0
  -25.6390   67.0690   23.3610 C   0  0  0  0  0  0  0  0  0  0  0  0
  -26.8390   66.5220   23.6860 N   0  0  0  0  0  0  0  0  0  0  0  0
  -26.9860   65.6900   24.7540 C   0  0  0  0  0  0  0  0  0  0  0  0
  -28.2430   65.1430   25.0600 C   0  0  0  0  0  0  0  0  0  0  0  0
  -29.6540   65.5130   24.0770 Cl  0  0  0  0  0  0  0  0  0  0  0  0
  -28.3820   64.2910   26.1610 C   0  0  0  0  0  0  0  0  0  0  0  0
  -27.2780   63.9820   26.9580 C   0  0  0  0  0  0  0  0  0  0  0  0
  -26.0230   64.5210   26.6630 C   0  0  0  0  0  0  0  0  0  0  0  0
  -25.8650   65.3790   25.5610 C   0  0  0  0  0  0  0  0  0  0  0  0
  2 12  1  0  0  0  0
  2  1  1  0  0  0  0
  3  2  2  0  0  0  0
  4  5  2  0  0  0  0
  4  3  1  0  0  0  0
  5  6  1  0  0  0  0
  6  7  2  0  0  0  0
  6 12  1  0  0  0  0
  7  9  1  0  0  0  0
  8  7  1  0  0  0  0
  9 10  2  0  0  0  0
 11 10  1  0  0  0  0
 12 11  2  0  0  0  0
M  END
>  <REMARK>
 VINA RESULT:      -6.9      2.152      2.821
  0 active torsions:
  status: ('A' for Active; 'I' for Inactive)

>  <TORSDO>
F 0

$$$$
../pdbqt/decoy.vina_out.22.pdbqt
 OpenBabel06052021513D

 12 13  0  0  0  0  0  0  0  0999 V2000
  -29.5810   65.5050   24.1000 O   0  0  0  0  0  0  0  0  0  0  0  0
  -28.4920   65.2080   24.9150 C   0  0  0  0  0  0  0  0  0  0  0  0
  -28.6740   64.3790   26.0240 C   0  0  0  0  0  0  0  0  0  0  0  0
  -27.5880   64.0760   26.8450 C   0  0  0  0  0  0  0  0  0  0  0  0
  -26.3590   64.5860   26.5670 N   0  0  0  0  0  0  0  0  0  0  0  0
  -26.1410   65.3960   25.4950 C   0  0  0  0  0  0  0  0  0  0  0  0
  -24.8570   65.9040   25.2390 C   0  0  0  0  0  0  0  0  0  0  0  0
  -23.5020   65.5090   26.2880 Cl  0  0  0  0  0  0  0  0  0  0  0  0
  -24.6450   66.7370   24.1350 C   0  0  0  0  0  0  0  0  0  0  0  0
  -25.7040   67.0660   23.2860 C   0  0  0  0  0  0  0  0  0  0  0  0
  -26.9860   66.5670   23.5320 C   0  0  0  0  0  0  0  0  0  0  0  0
  -27.2170   65.7290   24.6360 C   0  0  0  0  0  0  0  0  0  0  0  0
  1  2  1  0  0  0  0
  2  3  1  0  0  0  0
  3  4  2  0  0  0  0
  5  4  1  0  0  0  0
  6  5  2  0  0  0  0
  7  6  1  0  0  0  0
  7  8  1  0  0  0  0
  9  7  2  0  0  0  0
 10 11  2  0  0  0  0
 10  9  1  0  0  0  0
 11 12  1  0  0  0  0
 12  2  2  0  0  0  0
 12  6  1  0  0  0  0
M  END
>  <REMARK>
 VINA RESULT:      -6.8      2.035      3.526
  0 active torsions:
  status: ('A' for Active; 'I' for Inactive)

>  <TORSDO>
F 0

$$$$
../pdbqt/decoy.vina_out.22.pdbqt
 OpenBabel06052021513D

 12 13  0  0  0  0  0  0  0  0999 V2000
  -27.5110   63.0670   27.5710 O   0  0  0  0  0  0  0  0  0  0  0  0
  -26.7530   63.9880   26.8540 C   0  0  0  0  0  0  0  0  0  0  0  0
  -25.4110   64.1790   27.1910 C   0  0  0  0  0  0  0  0  0  0  0  0
  -24.6440   65.1000   26.4770 C   0  0  0  0  0  0  0  0  0  0  0  0
  -25.2000   65.8080   25.4590 N   0  0  0  0  0  0  0  0  0  0  0  0
  -26.5050   65.6500   25.1000 C   0  0  0  0  0  0  0  0  0  0  0  0
  -27.0450   66.3990   24.0420 C   0  0  0  0  0  0  0  0  0  0  0  0
  -26.0590   67.5560   23.1570 Cl  0  0  0  0  0  0  0  0  0  0  0  0
  -28.3860   66.2290   23.6830 C   0  0  0  0  0  0  0  0  0  0  0  0
  -29.1910   65.3170   24.3710 C   0  0  0  0  0  0  0  0  0  0  0  0
  -28.6630   64.5670   25.4250 C   0  0  0  0  0  0  0  0  0  0  0  0
  -27.3180   64.7260   25.7990 C   0  0  0  0  0  0  0  0  0  0  0  0
  2  3  1  0  0  0  0
  2  1  1  0  0  0  0
  4  3  2  0  0  0  0
  5  4  1  0  0  0  0
  6  5  2  0  0  0  0
  6 12  1  0  0  0  0
  7  6  1  0  0  0  0
  8  7  1  0  0  0  0
  9  7  2  0  0  0  0
  9 10  1  0  0  0  0
 10 11  2  0  0  0  0
 11 12  1  0  0  0  0
 12  2  2  0  0  0  0
M  END
>  <REMARK>
 VINA RESULT:      -6.8      2.822      3.452
  0 active torsions:
  status: ('A' for Active; 'I' for Inactive)

>  <TORSDO>
F 0

$$$$
../pdbqt/decoy.vina_out.22.pdbqt
 OpenBabel06052021513D

 12 13  0  0  0  0  0  0  0  0999 V2000
  -23.8970   64.3620   27.1100 O   0  0  0  0  0  0  0  0  0  0  0  0
  -25.2250   64.4930   26.7120 C   0  0  0  0  0  0  0  0  0  0  0  0
  -26.2150   63.7780   27.3910 C   0  0  0  0  0  0  0  0  0  0  0  0
  -27.5480   63.9040   26.9990 C   0  0  0  0  0  0  0  0  0  0  0  0
  -27.8810   64.7170   25.9630 N   0  0  0  0  0  0  0  0  0  0  0  0
  -26.9450   65.4310   25.2770 C   0  0  0  0  0  0  0  0  0  0  0  0
  -27.3270   66.2620   24.2110 C   0  0  0  0  0  0  0  0  0  0  0  0
  -29.0140   66.4040   23.7350 Cl  0  0  0  0  0  0  0  0  0  0  0  0
  -26.3570   66.9890   23.5140 C   0  0  0  0  0  0  0  0  0  0  0  0
  -25.0100   66.8930   23.8720 C   0  0  0  0  0  0  0  0  0  0  0  0
  -24.6190   66.0690   24.9310 C   0  0  0  0  0  0  0  0  0  0  0  0
  -25.5810   65.3320   25.6420 C   0  0  0  0  0  0  0  0  0  0  0  0
  2  1  1  0  0  0  0
  2  3  2  0  0  0  0
  4  3  1  0  0  0  0
  5  4  2  0  0  0  0
  6 12  1  0  0  0  0
  6  5  1  0  0  0  0
  7  6  2  0  0  0  0
  8  7  1  0  0  0  0
  9 10  2  0  0  0  0
  9  7  1  0  0  0  0
 10 11  1  0  0  0  0
 11 12  2  0  0  0  0
 12  2  1  0  0  0  0
M  END
>  <REMARK>
 VINA RESULT:      -6.6      2.539      3.773
  0 active torsions:
  status: ('A' for Active; 'I' for Inactive)

>  <TORSDO>
F 0

$$$$
../pdbqt/decoy.vina_out.22.pdbqt
 OpenBabel06052021513D

 12 13  0  0  0  0  0  0  0  0999 V2000
  -26.6250   61.3880   28.9810 O   0  0  0  0  0  0  0  0  0  0  0  0
  -25.8750   62.2380   28.1740 C   0  0  0  0  0  0  0  0  0  0  0  0
  -24.4880   62.0780   28.1150 C   0  0  0  0  0  0  0  0  0  0  0  0
  -23.7290   62.9240   27.3070 C   0  0  0  0  0  0  0  0  0  0  0  0
  -24.3350   63.9010   26.5820 N   0  0  0  0  0  0  0  0  0  0  0  0
  -25.6840   64.0880   26.6110 C   0  0  0  0  0  0  0  0  0  0  0  0
  -26.2750   65.1070   25.8460 C   0  0  0  0  0  0  0  0  0  0  0  0
  -25.2980   66.1630   24.8360 Cl  0  0  0  0  0  0  0  0  0  0  0  0
  -27.6620   65.2900   25.8860 C   0  0  0  0  0  0  0  0  0  0  0  0
  -28.4610   64.4650   26.6800 C   0  0  0  0  0  0  0  0  0  0  0  0
  -27.8820   63.4480   27.4450 C   0  0  0  0  0  0  0  0  0  0  0  0
  -26.4920   63.2500   27.4180 C   0  0  0  0  0  0  0  0  0  0  0  0
  2  1  1  0  0  0  0
  3  2  1  0  0  0  0
  4  3  2  0  0  0  0
  5  6  2  0  0  0  0
  5  4  1  0  0  0  0
  6 12  1  0  0  0  0
  7  9  2  0  0  0  0
  7  6  1  0  0  0  0
  8  7  1  0  0  0  0
  9 10  1  0  0  0  0
 10 11  2  0  0  0  0
 12 11  1  0  0  0  0
 12  2  2  0  0  0  0
M  END
>  <REMARK>
 VINA RESULT:      -6.5      3.656      4.479
  0 active torsions:
  status: ('A' for Active; 'I' for Inactive)

>  <TORSDO>
F 0

$$$$
