../pdbqt/decoy.vina_out.37.pdbqt
 OpenBabel06052021513D

 26 27  0  0  0  0  0  0  0  0999 V2000
  -21.5970   62.9210   23.7400 C   0  0  0  0  0  0  0  0  0  0  0  0
  -22.4960   62.4980   22.9620 O   0  0  0  0  0  0  0  0  0  0  0  0
  -21.8750   63.9330   24.6670 O   0  0  0  0  0  0  0  0  0  0  0  0
  -22.9760   63.9570   25.5350 C   0  0  0  0  0  0  0  0  0  0  0  0
  -23.2010   62.9520   26.4940 C   0  0  0  0  0  0  0  0  0  0  0  0
  -24.3070   63.0240   27.3460 C   0  0  0  0  0  0  0  0  0  0  0  0
  -25.2100   64.0970   27.2510 C   0  0  0  0  0  0  0  0  0  0  0  0
  -24.9590   65.1180   26.3220 C   0  0  0  0  0  0  0  0  0  0  0  0
  -23.8520   65.0460   25.4710 C   0  0  0  0  0  0  0  0  0  0  0  0
  -26.3420   64.2060   28.1300 N   0  0  0  0  0  0  0  0  0  0  0  0
  -27.6800   63.8270   27.7700 C   0  0  0  0  0  0  0  0  0  0  0  0
  -28.7510   63.7520   28.8100 C   0  0  0  0  0  0  0  0  0  0  0  0
  -27.9780   63.5860   26.5700 O   0  0  0  0  0  0  0  0  0  0  0  0
  -26.2000   64.6720   29.0560 H   0  0  0  0  0  0  0  0  0  0  0  0
  -20.2790   62.4680   23.6180 O   0  0  0  0  0  0  0  0  0  0  0  0
  -19.2200   63.1940   23.0500 C   0  0  0  0  0  0  0  0  0  0  0  0
  -17.9280   62.9850   23.5450 C   0  0  0  0  0  0  0  0  0  0  0  0
  -16.8390   63.6760   23.0040 C   0  0  0  0  0  0  0  0  0  0  0  0
  -17.0270   64.5730   21.9370 C   0  0  0  0  0  0  0  0  0  0  0  0
  -18.3220   64.7840   21.4430 C   0  0  0  0  0  0  0  0  0  0  0  0
  -19.4100   64.0920   21.9850 C   0  0  0  0  0  0  0  0  0  0  0  0
  -15.9290   65.3140   21.3760 N   0  0  0  0  0  0  0  0  0  0  0  0
  -15.1730   64.8930   20.2300 C   0  0  0  0  0  0  0  0  0  0  0  0
  -13.9300   65.6300   19.8490 C   0  0  0  0  0  0  0  0  0  0  0  0
  -15.5890   63.9600   19.4920 O   0  0  0  0  0  0  0  0  0  0  0  0
  -15.7190   66.2570   21.7760 H   0  0  0  0  0  0  0  0  0  0  0  0
  1  3  1  0  0  0  0
  2  1  2  0  0  0  0
  3  4  1  0  0  0  0
  4  5  1  0  0  0  0
  5  6  2  0  0  0  0
  7  6  1  0  0  0  0
  7 10  1  0  0  0  0
  8  7  2  0  0  0  0
  9  4  2  0  0  0  0
  9  8  1  0  0  0  0
 10 14  1  0  0  0  0
 11 10  1  0  0  0  0
 11 12  1  0  0  0  0
 13 11  2  0  0  0  0
 15  1  1  0  0  0  0
 16 17  1  0  0  0  0
 16 15  1  0  0  0  0
 18 17  2  0  0  0  0
 19 18  1  0  0  0  0
 20 19  2  0  0  0  0
 20 21  1  0  0  0  0
 21 16  2  0  0  0  0
 22 26  1  0  0  0  0
 22 19  1  0  0  0  0
 23 22  1  0  0  0  0
 24 23  1  0  0  0  0
 25 23  2  0  0  0  0
M  END
>  <MODEL>
1

>  <REMARK>
 VINA RESULT:      -7.7      0.000      0.000
  6 active torsions:
  status: ('A' for Active; 'I' for Inactive)
       I    between atoms: C2_2  and  N1_4 
    1  A    between atoms: N1_4  and  C3_5 
    2  A    between atoms: C6_8  and  O2_9 
    3  A    between atoms: O2_9  and  C7_10 
    4  A    between atoms: C7_10  and  O4_12 
    5  A    between atoms: O4_12  and  C8_13 
    6  A    between atoms: C11_16  and  N2_17 
       I    between atoms: N2_17  and  C12_18 

>  <TORSDO>
F 6

$$$$
../pdbqt/decoy.vina_out.37.pdbqt
 OpenBabel06052021513D

 26 27  0  0  0  0  0  0  0  0999 V2000
  -21.5720   63.0840   23.6690 C   0  0  0  0  0  0  0  0  0  0  0  0
  -22.4190   62.5540   22.8980 O   0  0  0  0  0  0  0  0  0  0  0  0
  -20.2830   62.5500   23.7870 O   0  0  0  0  0  0  0  0  0  0  0  0
  -19.1080   63.1600   23.3240 C   0  0  0  0  0  0  0  0  0  0  0  0
  -17.8280   62.7040   23.6900 C   0  0  0  0  0  0  0  0  0  0  0  0
  -16.6840   63.3380   23.1940 C   0  0  0  0  0  0  0  0  0  0  0  0
  -16.8000   64.4410   22.3310 C   0  0  0  0  0  0  0  0  0  0  0  0
  -18.0770   64.8660   21.9350 C   0  0  0  0  0  0  0  0  0  0  0  0
  -19.2200   64.2310   22.4310 C   0  0  0  0  0  0  0  0  0  0  0  0
  -15.6400   65.0960   21.7890 N   0  0  0  0  0  0  0  0  0  0  0  0
  -15.1350   64.8730   20.4630 C   0  0  0  0  0  0  0  0  0  0  0  0
  -14.0720   65.7590   19.8990 C   0  0  0  0  0  0  0  0  0  0  0  0
  -15.5540   63.9060   19.7710 O   0  0  0  0  0  0  0  0  0  0  0  0
  -15.0790   65.7050   22.4280 H   0  0  0  0  0  0  0  0  0  0  0  0
  -21.9350   64.1460   24.5050 O   0  0  0  0  0  0  0  0  0  0  0  0
  -23.0820   64.1870   25.3130 C   0  0  0  0  0  0  0  0  0  0  0  0
  -23.9890   65.2370   25.1310 C   0  0  0  0  0  0  0  0  0  0  0  0
  -25.1520   65.3150   25.9040 C   0  0  0  0  0  0  0  0  0  0  0  0
  -25.4370   64.3220   26.8580 C   0  0  0  0  0  0  0  0  0  0  0  0
  -24.5280   63.2710   27.0420 C   0  0  0  0  0  0  0  0  0  0  0  0
  -23.3650   63.1940   26.2680 C   0  0  0  0  0  0  0  0  0  0  0  0
  -26.6140   64.3890   27.6830 N   0  0  0  0  0  0  0  0  0  0  0  0
  -27.9550   64.2580   27.1870 C   0  0  0  0  0  0  0  0  0  0  0  0
  -29.1120   64.5400   28.0890 C   0  0  0  0  0  0  0  0  0  0  0  0
  -28.1720   63.8260   26.0230 O   0  0  0  0  0  0  0  0  0  0  0  0
  -26.4840   64.4560   28.7180 H   0  0  0  0  0  0  0  0  0  0  0  0
  1  3  1  0  0  0  0
  1 15  1  0  0  0  0
  2  1  2  0  0  0  0
  4  5  1  0  0  0  0
  4  3  1  0  0  0  0
  6  5  2  0  0  0  0
  7  6  1  0  0  0  0
  8  7  2  0  0  0  0
  8  9  1  0  0  0  0
  9  4  2  0  0  0  0
 10  7  1  0  0  0  0
 10 14  1  0  0  0  0
 11 10  1  0  0  0  0
 12 11  1  0  0  0  0
 13 11  2  0  0  0  0
 15 16  1  0  0  0  0
 16 21  1  0  0  0  0
 17 16  2  0  0  0  0
 17 18  1  0  0  0  0
 18 19  2  0  0  0  0
 19 20  1  0  0  0  0
 19 22  1  0  0  0  0
 21 20  2  0  0  0  0
 22 26  1  0  0  0  0
 23 22  1  0  0  0  0
 23 24  1  0  0  0  0
 25 23  2  0  0  0  0
M  END
>  <REMARK>
 VINA RESULT:      -7.6      0.479     10.040
  6 active torsions:
  status: ('A' for Active; 'I' for Inactive)
       I    between atoms: C2_2  and  N1_4 
    1  A    between atoms: N1_4  and  C3_5 
    2  A    between atoms: C6_8  and  O2_9 
    3  A    between atoms: O2_9  and  C7_10 
    4  A    between atoms: C7_10  and  O4_12 
    5  A    between atoms: O4_12  and  C8_13 
    6  A    between atoms: C11_16  and  N2_17 
       I    between atoms: N2_17  and  C12_18 

>  <TORSDO>
F 6

$$$$
../pdbqt/decoy.vina_out.37.pdbqt
 OpenBabel06052021513D

 26 27  0  0  0  0  0  0  0  0999 V2000
  -19.4460   63.9240   23.6910 C   0  0  0  0  0  0  0  0  0  0  0  0
  -19.2540   62.6990   23.9240 O   0  0  0  0  0  0  0  0  0  0  0  0
  -19.9980   64.7580   24.6700 O   0  0  0  0  0  0  0  0  0  0  0  0
  -21.3420   65.1560   24.7310 C   0  0  0  0  0  0  0  0  0  0  0  0
  -21.7220   66.5000   24.9020 C   0  0  0  0  0  0  0  0  0  0  0  0
  -23.0750   66.8510   24.9460 C   0  0  0  0  0  0  0  0  0  0  0  0
  -24.0690   65.8660   24.8230 C   0  0  0  0  0  0  0  0  0  0  0  0
  -23.6870   64.5340   24.6100 C   0  0  0  0  0  0  0  0  0  0  0  0
  -22.3340   64.1830   24.5660 C   0  0  0  0  0  0  0  0  0  0  0  0
  -25.4670   66.2030   24.8410 N   0  0  0  0  0  0  0  0  0  0  0  0
  -26.1850   66.7210   23.7100 C   0  0  0  0  0  0  0  0  0  0  0  0
  -27.6760   66.8250   23.7430 C   0  0  0  0  0  0  0  0  0  0  0  0
  -25.5680   67.1280   22.6890 O   0  0  0  0  0  0  0  0  0  0  0  0
  -25.9710   66.1520   25.7570 H   0  0  0  0  0  0  0  0  0  0  0  0
  -19.2150   64.4510   22.4150 O   0  0  0  0  0  0  0  0  0  0  0  0
  -17.9640   64.8450   21.9140 C   0  0  0  0  0  0  0  0  0  0  0  0
  -17.1570   65.6680   22.7080 C   0  0  0  0  0  0  0  0  0  0  0  0
  -15.8980   66.0770   22.2580 C   0  0  0  0  0  0  0  0  0  0  0  0
  -15.4160   65.6450   21.0090 C   0  0  0  0  0  0  0  0  0  0  0  0
  -16.2250   64.8230   20.2130 C   0  0  0  0  0  0  0  0  0  0  0  0
  -17.4850   64.4140   20.6640 C   0  0  0  0  0  0  0  0  0  0  0  0
  -14.1350   66.0690   20.5100 N   0  0  0  0  0  0  0  0  0  0  0  0
  -13.0630   65.1730   20.1770 C   0  0  0  0  0  0  0  0  0  0  0  0
  -11.7100   65.7210   19.8590 C   0  0  0  0  0  0  0  0  0  0  0  0
  -13.2690   63.9350   20.0670 O   0  0  0  0  0  0  0  0  0  0  0  0
  -14.0010   67.0840   20.3010 H   0  0  0  0  0  0  0  0  0  0  0  0
  1  2  2  0  0  0  0
  1  3  1  0  0  0  0
  3  4  1  0  0  0  0
  4  5  2  0  0  0  0
  5  6  1  0  0  0  0
  7 10  1  0  0  0  0
  7  6  2  0  0  0  0
  8  7  1  0  0  0  0
  9  8  2  0  0  0  0
  9  4  1  0  0  0  0
 10 14  1  0  0  0  0
 11 12  1  0  0  0  0
 11 10  1  0  0  0  0
 13 11  2  0  0  0  0
 15  1  1  0  0  0  0
 16 15  1  0  0  0  0
 16 17  2  0  0  0  0
 18 17  1  0  0  0  0
 19 18  2  0  0  0  0
 20 21  2  0  0  0  0
 20 19  1  0  0  0  0
 21 16  1  0  0  0  0
 22 19  1  0  0  0  0
 23 22  1  0  0  0  0
 24 23  1  0  0  0  0
 25 23  2  0  0  0  0
 26 22  1  0  0  0  0
M  END
>  <REMARK>
 VINA RESULT:      -7.5      2.786      3.294
  6 active torsions:
  status: ('A' for Active; 'I' for Inactive)
       I    between atoms: C2_2  and  N1_4 
    1  A    between atoms: N1_4  and  C3_5 
    2  A    between atoms: C6_8  and  O2_9 
    3  A    between atoms: O2_9  and  C7_10 
    4  A    between atoms: C7_10  and  O4_12 
    5  A    between atoms: O4_12  and  C8_13 
    6  A    between atoms: C11_16  and  N2_17 
       I    between atoms: N2_17  and  C12_18 

>  <TORSDO>
F 6

$$$$
../pdbqt/decoy.vina_out.37.pdbqt
 OpenBabel06052021513D

 26 27  0  0  0  0  0  0  0  0999 V2000
  -22.5290   63.2700   27.2290 C   0  0  0  0  0  0  0  0  0  0  0  0
  -21.8370   63.4100   28.2750 O   0  0  0  0  0  0  0  0  0  0  0  0
  -23.6060   62.3760   27.2020 O   0  0  0  0  0  0  0  0  0  0  0  0
  -24.9310   62.6930   27.5340 C   0  0  0  0  0  0  0  0  0  0  0  0
  -25.6190   63.7680   26.9390 C   0  0  0  0  0  0  0  0  0  0  0  0
  -26.9440   64.0400   27.2940 C   0  0  0  0  0  0  0  0  0  0  0  0
  -27.6020   63.2480   28.2500 C   0  0  0  0  0  0  0  0  0  0  0  0
  -26.9270   62.1520   28.8090 C   0  0  0  0  0  0  0  0  0  0  0  0
  -25.6020   61.8800   28.4540 C   0  0  0  0  0  0  0  0  0  0  0  0
  -28.9710   63.4920   28.6150 N   0  0  0  0  0  0  0  0  0  0  0  0
  -29.3750   64.3160   29.7210 C   0  0  0  0  0  0  0  0  0  0  0  0
  -30.8070   64.7050   29.8900 C   0  0  0  0  0  0  0  0  0  0  0  0
  -28.5350   64.6900   30.5820 O   0  0  0  0  0  0  0  0  0  0  0  0
  -29.7160   62.9690   28.0990 H   0  0  0  0  0  0  0  0  0  0  0  0
  -22.1680   63.9190   26.0430 O   0  0  0  0  0  0  0  0  0  0  0  0
  -21.0410   63.6160   25.2630 C   0  0  0  0  0  0  0  0  0  0  0  0
  -20.5920   62.2910   25.2260 C   0  0  0  0  0  0  0  0  0  0  0  0
  -19.4810   61.9370   24.4540 C   0  0  0  0  0  0  0  0  0  0  0  0
  -18.8160   62.9070   23.6830 C   0  0  0  0  0  0  0  0  0  0  0  0
  -19.2640   64.2340   23.7220 C   0  0  0  0  0  0  0  0  0  0  0  0
  -20.3750   64.5870   24.4940 C   0  0  0  0  0  0  0  0  0  0  0  0
  -17.6570   62.5770   22.8980 N   0  0  0  0  0  0  0  0  0  0  0  0
  -16.3040   62.7100   23.3610 C   0  0  0  0  0  0  0  0  0  0  0  0
  -15.1700   62.5320   22.4040 C   0  0  0  0  0  0  0  0  0  0  0  0
  -16.0560   62.8920   24.5830 O   0  0  0  0  0  0  0  0  0  0  0  0
  -17.8080   62.1370   21.9610 H   0  0  0  0  0  0  0  0  0  0  0  0
  1  2  2  0  0  0  0
  3  1  1  0  0  0  0
  3  4  1  0  0  0  0
  4  9  2  0  0  0  0
  5  6  2  0  0  0  0
  5  4  1  0  0  0  0
  6  7  1  0  0  0  0
  7 10  1  0  0  0  0
  7  8  2  0  0  0  0
  9  8  1  0  0  0  0
 10 11  1  0  0  0  0
 11 12  1  0  0  0  0
 11 13  2  0  0  0  0
 14 10  1  0  0  0  0
 15  1  1  0  0  0  0
 16 15  1  0  0  0  0
 17 16  1  0  0  0  0
 18 17  2  0  0  0  0
 19 20  2  0  0  0  0
 19 18  1  0  0  0  0
 20 21  1  0  0  0  0
 21 16  2  0  0  0  0
 22 23  1  0  0  0  0
 22 19  1  0  0  0  0
 23 25  2  0  0  0  0
 24 23  1  0  0  0  0
 26 22  1  0  0  0  0
M  END
>  <REMARK>
 VINA RESULT:      -7.4      2.558      3.561
  6 active torsions:
  status: ('A' for Active; 'I' for Inactive)
       I    between atoms: C2_2  and  N1_4 
    1  A    between atoms: N1_4  and  C3_5 
    2  A    between atoms: C6_8  and  O2_9 
    3  A    between atoms: O2_9  and  C7_10 
    4  A    between atoms: C7_10  and  O4_12 
    5  A    between atoms: O4_12  and  C8_13 
    6  A    between atoms: C11_16  and  N2_17 
       I    between atoms: N2_17  and  C12_18 

>  <TORSDO>
F 6

$$$$
../pdbqt/decoy.vina_out.37.pdbqt
 OpenBabel06052021513D

 26 27  0  0  0  0  0  0  0  0999 V2000
  -20.3150   63.0990   25.1950 C   0  0  0  0  0  0  0  0  0  0  0  0
  -20.1180   62.1000   25.9400 O   0  0  0  0  0  0  0  0  0  0  0  0
  -20.9020   64.2630   25.7040 O   0  0  0  0  0  0  0  0  0  0  0  0
  -22.2760   64.5450   25.7020 C   0  0  0  0  0  0  0  0  0  0  0  0
  -23.2290   63.6530   26.2300 C   0  0  0  0  0  0  0  0  0  0  0  0
  -24.5880   63.9820   26.2160 C   0  0  0  0  0  0  0  0  0  0  0  0
  -25.0180   65.2040   25.6710 C   0  0  0  0  0  0  0  0  0  0  0  0
  -24.0620   66.1080   25.1850 C   0  0  0  0  0  0  0  0  0  0  0  0
  -22.7030   65.7790   25.1990 C   0  0  0  0  0  0  0  0  0  0  0  0
  -26.4070   65.5760   25.6650 N   0  0  0  0  0  0  0  0  0  0  0  0
  -27.1740   65.8060   24.4720 C   0  0  0  0  0  0  0  0  0  0  0  0
  -28.6590   65.9590   24.5460 C   0  0  0  0  0  0  0  0  0  0  0  0
  -26.6040   65.9170   23.3540 O   0  0  0  0  0  0  0  0  0  0  0  0
  -26.8630   65.7770   26.5850 H   0  0  0  0  0  0  0  0  0  0  0  0
  -20.0540   63.0260   23.8220 O   0  0  0  0  0  0  0  0  0  0  0  0
  -18.9660   63.6270   23.1690 C   0  0  0  0  0  0  0  0  0  0  0  0
  -17.6810   63.1360   23.4260 C   0  0  0  0  0  0  0  0  0  0  0  0
  -16.5670   63.6930   22.7910 C   0  0  0  0  0  0  0  0  0  0  0  0
  -16.7270   64.7410   21.8670 C   0  0  0  0  0  0  0  0  0  0  0  0
  -18.0140   65.2350   21.6120 C   0  0  0  0  0  0  0  0  0  0  0  0
  -19.1280   64.6760   22.2470 C   0  0  0  0  0  0  0  0  0  0  0  0
  -15.5970   65.3490   21.2170 N   0  0  0  0  0  0  0  0  0  0  0  0
  -15.0250   64.8790   19.9860 C   0  0  0  0  0  0  0  0  0  0  0  0
  -13.7350   65.4550   19.4990 C   0  0  0  0  0  0  0  0  0  0  0  0
  -15.6390   64.0460   19.2680 O   0  0  0  0  0  0  0  0  0  0  0  0
  -15.2170   66.2360   21.6200 H   0  0  0  0  0  0  0  0  0  0  0  0
  1  3  1  0  0  0  0
  1  2  2  0  0  0  0
  4  3  1  0  0  0  0
  4  5  2  0  0  0  0
  6  5  1  0  0  0  0
  7  6  2  0  0  0  0
  8  9  2  0  0  0  0
  8  7  1  0  0  0  0
  9  4  1  0  0  0  0
 10  7  1  0  0  0  0
 10 14  1  0  0  0  0
 11 12  1  0  0  0  0
 11 10  1  0  0  0  0
 13 11  2  0  0  0  0
 15  1  1  0  0  0  0
 16 17  1  0  0  0  0
 16 15  1  0  0  0  0
 18 17  2  0  0  0  0
 19 18  1  0  0  0  0
 20 19  2  0  0  0  0
 20 21  1  0  0  0  0
 21 16  2  0  0  0  0
 22 26  1  0  0  0  0
 22 19  1  0  0  0  0
 23 22  1  0  0  0  0
 24 23  1  0  0  0  0
 25 23  2  0  0  0  0
M  END
>  <REMARK>
 VINA RESULT:      -7.3      1.854      2.032
  6 active torsions:
  status: ('A' for Active; 'I' for Inactive)
       I    between atoms: C2_2  and  N1_4 
    1  A    between atoms: N1_4  and  C3_5 
    2  A    between atoms: C6_8  and  O2_9 
    3  A    between atoms: O2_9  and  C7_10 
    4  A    between atoms: C7_10  and  O4_12 
    5  A    between atoms: O4_12  and  C8_13 
    6  A    between atoms: C11_16  and  N2_17 
       I    between atoms: N2_17  and  C12_18 

>  <TORSDO>
F 6

$$$$
../pdbqt/decoy.vina_out.37.pdbqt
 OpenBabel06052021513D

 26 27  0  0  0  0  0  0  0  0999 V2000
  -21.1740   62.8290   25.8100 C   0  0  0  0  0  0  0  0  0  0  0  0
  -21.2360   61.7130   25.2260 O   0  0  0  0  0  0  0  0  0  0  0  0
  -20.0850   63.6840   25.6020 O   0  0  0  0  0  0  0  0  0  0  0  0
  -19.3170   63.7470   24.4300 C   0  0  0  0  0  0  0  0  0  0  0  0
  -19.7600   64.4160   23.2740 C   0  0  0  0  0  0  0  0  0  0  0  0
  -18.9530   64.4610   22.1320 C   0  0  0  0  0  0  0  0  0  0  0  0
  -17.6950   63.8350   22.1250 C   0  0  0  0  0  0  0  0  0  0  0  0
  -17.2400   63.2050   23.2920 C   0  0  0  0  0  0  0  0  0  0  0  0
  -18.0460   63.1610   24.4340 C   0  0  0  0  0  0  0  0  0  0  0  0
  -16.8380   63.8860   20.9720 N   0  0  0  0  0  0  0  0  0  0  0  0
  -15.8730   64.9240   20.7310 C   0  0  0  0  0  0  0  0  0  0  0  0
  -14.8660   64.7810   19.6360 C   0  0  0  0  0  0  0  0  0  0  0  0
  -15.8860   65.9830   21.4140 O   0  0  0  0  0  0  0  0  0  0  0  0
  -16.9850   63.1740   20.2200 H   0  0  0  0  0  0  0  0  0  0  0  0
  -22.1350   63.1890   26.7620 O   0  0  0  0  0  0  0  0  0  0  0  0
  -23.3640   63.8080   26.4810 C   0  0  0  0  0  0  0  0  0  0  0  0
  -24.5330   63.2310   26.9910 C   0  0  0  0  0  0  0  0  0  0  0  0
  -25.7790   63.8160   26.7490 C   0  0  0  0  0  0  0  0  0  0  0  0
  -25.8710   65.0090   26.0090 C   0  0  0  0  0  0  0  0  0  0  0  0
  -24.7010   65.5850   25.4970 C   0  0  0  0  0  0  0  0  0  0  0  0
  -23.4540   64.9990   25.7400 C   0  0  0  0  0  0  0  0  0  0  0  0
  -27.1410   65.6210   25.7250 N   0  0  0  0  0  0  0  0  0  0  0  0
  -27.5320   66.1040   24.4310 C   0  0  0  0  0  0  0  0  0  0  0  0
  -28.7870   66.9010   24.2840 C   0  0  0  0  0  0  0  0  0  0  0  0
  -26.8740   65.7940   23.4020 O   0  0  0  0  0  0  0  0  0  0  0  0
  -27.8560   65.6440   26.4880 H   0  0  0  0  0  0  0  0  0  0  0  0
  1 15  1  0  0  0  0
  2  1  2  0  0  0  0
  3  1  1  0  0  0  0
  4  9  1  0  0  0  0
  4  3  1  0  0  0  0
  5  4  2  0  0  0  0
  6  5  1  0  0  0  0
  7  6  2  0  0  0  0
  7  8  1  0  0  0  0
  8  9  2  0  0  0  0
 10  7  1  0  0  0  0
 11 10  1  0  0  0  0
 11 13  2  0  0  0  0
 12 11  1  0  0  0  0
 14 10  1  0  0  0  0
 16 15  1  0  0  0  0
 16 17  2  0  0  0  0
 18 17  1  0  0  0  0
 19 18  2  0  0  0  0
 20 21  2  0  0  0  0
 20 19  1  0  0  0  0
 21 16  1  0  0  0  0
 22 19  1  0  0  0  0
 22 26  1  0  0  0  0
 23 22  1  0  0  0  0
 24 23  1  0  0  0  0
 25 23  2  0  0  0  0
M  END
>  <REMARK>
 VINA RESULT:      -7.2      2.021      9.522
  6 active torsions:
  status: ('A' for Active; 'I' for Inactive)
       I    between atoms: C2_2  and  N1_4 
    1  A    between atoms: N1_4  and  C3_5 
    2  A    between atoms: C6_8  and  O2_9 
    3  A    between atoms: O2_9  and  C7_10 
    4  A    between atoms: C7_10  and  O4_12 
    5  A    between atoms: O4_12  and  C8_13 
    6  A    between atoms: C11_16  and  N2_17 
       I    between atoms: N2_17  and  C12_18 

>  <TORSDO>
F 6

$$$$
../pdbqt/decoy.vina_out.37.pdbqt
 OpenBabel06052021513D

 26 27  0  0  0  0  0  0  0  0999 V2000
  -19.4140   64.1840   23.4970 C   0  0  0  0  0  0  0  0  0  0  0  0
  -19.2270   62.9360   23.4830 O   0  0  0  0  0  0  0  0  0  0  0  0
  -18.8850   64.9950   22.4860 O   0  0  0  0  0  0  0  0  0  0  0  0
  -17.5880   64.8950   21.9620 C   0  0  0  0  0  0  0  0  0  0  0  0
  -17.3430   64.5620   20.6170 C   0  0  0  0  0  0  0  0  0  0  0  0
  -16.0320   64.4850   20.1370 C   0  0  0  0  0  0  0  0  0  0  0  0
  -14.9450   64.7330   20.9920 C   0  0  0  0  0  0  0  0  0  0  0  0
  -15.1950   65.1060   22.3210 C   0  0  0  0  0  0  0  0  0  0  0  0
  -16.5060   65.1840   22.8010 C   0  0  0  0  0  0  0  0  0  0  0  0
  -13.5890   64.6830   20.5180 N   0  0  0  0  0  0  0  0  0  0  0  0
  -12.8250   65.8390   20.1380 C   0  0  0  0  0  0  0  0  0  0  0  0
  -11.3580   65.7250   19.8800 C   0  0  0  0  0  0  0  0  0  0  0  0
  -13.3870   66.9560   19.9820 O   0  0  0  0  0  0  0  0  0  0  0  0
  -13.1620   63.7420   20.3560 H   0  0  0  0  0  0  0  0  0  0  0  0
  -20.0570   64.7960   24.5790 O   0  0  0  0  0  0  0  0  0  0  0  0
  -21.4250   65.1040   24.6420 C   0  0  0  0  0  0  0  0  0  0  0  0
  -22.3480   64.0530   24.5860 C   0  0  0  0  0  0  0  0  0  0  0  0
  -23.7210   64.3070   24.6570 C   0  0  0  0  0  0  0  0  0  0  0  0
  -24.1910   65.6230   24.8110 C   0  0  0  0  0  0  0  0  0  0  0  0
  -23.2670   66.6760   24.8650 C   0  0  0  0  0  0  0  0  0  0  0  0
  -21.8940   66.4200   24.7940 C   0  0  0  0  0  0  0  0  0  0  0  0
  -25.5990   65.9170   24.8640 N   0  0  0  0  0  0  0  0  0  0  0  0
  -26.3310   66.5460   23.8010 C   0  0  0  0  0  0  0  0  0  0  0  0
  -27.7400   66.9880   24.0310 C   0  0  0  0  0  0  0  0  0  0  0  0
  -25.8300   66.6560   22.6500 O   0  0  0  0  0  0  0  0  0  0  0  0
  -26.1390   65.5810   25.6930 H   0  0  0  0  0  0  0  0  0  0  0  0
  1 15  1  0  0  0  0
  2  1  2  0  0  0  0
  3  1  1  0  0  0  0
  4  3  1  0  0  0  0
  4  9  2  0  0  0  0
  5  4  1  0  0  0  0
  6  5  2  0  0  0  0
  6  7  1  0  0  0  0
  7  8  2  0  0  0  0
  8  9  1  0  0  0  0
 10  7  1  0  0  0  0
 11 10  1  0  0  0  0
 12 11  1  0  0  0  0
 13 11  2  0  0  0  0
 14 10  1  0  0  0  0
 15 16  1  0  0  0  0
 16 21  1  0  0  0  0
 17 16  2  0  0  0  0
 17 18  1  0  0  0  0
 18 19  2  0  0  0  0
 19 22  1  0  0  0  0
 19 20  1  0  0  0  0
 21 20  2  0  0  0  0
 22 26  1  0  0  0  0
 23 24  1  0  0  0  0
 23 22  1  0  0  0  0
 25 23  2  0  0  0  0
M  END
>  <REMARK>
 VINA RESULT:      -7.2      2.765     10.271
  6 active torsions:
  status: ('A' for Active; 'I' for Inactive)
       I    between atoms: C2_2  and  N1_4 
    1  A    between atoms: N1_4  and  C3_5 
    2  A    between atoms: C6_8  and  O2_9 
    3  A    between atoms: O2_9  and  C7_10 
    4  A    between atoms: C7_10  and  O4_12 
    5  A    between atoms: O4_12  and  C8_13 
    6  A    between atoms: C11_16  and  N2_17 
       I    between atoms: N2_17  and  C12_18 

>  <TORSDO>
F 6

$$$$
../pdbqt/decoy.vina_out.37.pdbqt
 OpenBabel06052021513D

 26 27  0  0  0  0  0  0  0  0999 V2000
  -20.5540   65.2050   24.7720 C   0  0  0  0  0  0  0  0  0  0  0  0
  -20.9470   64.3250   23.9590 O   0  0  0  0  0  0  0  0  0  0  0  0
  -19.1950   65.3330   25.0830 O   0  0  0  0  0  0  0  0  0  0  0  0
  -18.1380   65.1780   24.1740 C   0  0  0  0  0  0  0  0  0  0  0  0
  -17.5210   63.9350   23.9400 C   0  0  0  0  0  0  0  0  0  0  0  0
  -16.4780   63.8270   23.0160 C   0  0  0  0  0  0  0  0  0  0  0  0
  -16.0310   64.9590   22.3130 C   0  0  0  0  0  0  0  0  0  0  0  0
  -16.6760   66.1870   22.5170 C   0  0  0  0  0  0  0  0  0  0  0  0
  -17.7200   66.2950   23.4420 C   0  0  0  0  0  0  0  0  0  0  0  0
  -14.9750   64.8710   21.3400 N   0  0  0  0  0  0  0  0  0  0  0  0
  -15.1930   64.7100   19.9290 C   0  0  0  0  0  0  0  0  0  0  0  0
  -14.0590   64.8610   18.9670 C   0  0  0  0  0  0  0  0  0  0  0  0
  -16.3320   64.4050   19.4860 O   0  0  0  0  0  0  0  0  0  0  0  0
  -13.9900   64.8330   21.6890 H   0  0  0  0  0  0  0  0  0  0  0  0
  -21.4760   65.9990   25.4650 O   0  0  0  0  0  0  0  0  0  0  0  0
  -22.8710   65.8440   25.4250 C   0  0  0  0  0  0  0  0  0  0  0  0
  -23.6000   66.6020   24.5020 C   0  0  0  0  0  0  0  0  0  0  0  0
  -24.9890   66.4750   24.4160 C   0  0  0  0  0  0  0  0  0  0  0  0
  -25.6700   65.5620   25.2410 C   0  0  0  0  0  0  0  0  0  0  0  0
  -24.9400   64.8040   26.1670 C   0  0  0  0  0  0  0  0  0  0  0  0
  -23.5500   64.9320   26.2520 C   0  0  0  0  0  0  0  0  0  0  0  0
  -27.1020   65.4260   25.1910 N   0  0  0  0  0  0  0  0  0  0  0  0
  -27.9020   65.7460   24.0430 C   0  0  0  0  0  0  0  0  0  0  0  0
  -29.3920   65.7610   24.1580 C   0  0  0  0  0  0  0  0  0  0  0  0
  -27.3680   65.9330   22.9170 O   0  0  0  0  0  0  0  0  0  0  0  0
  -27.5820   64.9920   26.0120 H   0  0  0  0  0  0  0  0  0  0  0  0
  1  3  1  0  0  0  0
  1 15  1  0  0  0  0
  2  1  2  0  0  0  0
  4  3  1  0  0  0  0
  5  4  1  0  0  0  0
  6  5  2  0  0  0  0
  7  8  2  0  0  0  0
  7  6  1  0  0  0  0
  8  9  1  0  0  0  0
  9  4  2  0  0  0  0
 10 14  1  0  0  0  0
 10  7  1  0  0  0  0
 11 10  1  0  0  0  0
 12 11  1  0  0  0  0
 13 11  2  0  0  0  0
 16 15  1  0  0  0  0
 16 21  2  0  0  0  0
 17 16  1  0  0  0  0
 18 17  2  0  0  0  0
 18 19  1  0  0  0  0
 19 20  2  0  0  0  0
 20 21  1  0  0  0  0
 22 19  1  0  0  0  0
 22 26  1  0  0  0  0
 23 24  1  0  0  0  0
 23 22  1  0  0  0  0
 25 23  2  0  0  0  0
M  END
>  <REMARK>
 VINA RESULT:      -7.1      2.237      9.969
  6 active torsions:
  status: ('A' for Active; 'I' for Inactive)
       I    between atoms: C2_2  and  N1_4 
    1  A    between atoms: N1_4  and  C3_5 
    2  A    between atoms: C6_8  and  O2_9 
    3  A    between atoms: O2_9  and  C7_10 
    4  A    between atoms: C7_10  and  O4_12 
    5  A    between atoms: O4_12  and  C8_13 
    6  A    between atoms: C11_16  and  N2_17 
       I    between atoms: N2_17  and  C12_18 

>  <TORSDO>
F 6

$$$$
../pdbqt/decoy.vina_out.37.pdbqt
 OpenBabel06052021513D

 26 27  0  0  0  0  0  0  0  0999 V2000
  -23.8900   65.1080   25.1740 C   0  0  0  0  0  0  0  0  0  0  0  0
  -23.2350   66.0590   25.6820 O   0  0  0  0  0  0  0  0  0  0  0  0
  -23.2500   63.9200   24.8010 O   0  0  0  0  0  0  0  0  0  0  0  0
  -21.9980   63.8370   24.1750 C   0  0  0  0  0  0  0  0  0  0  0  0
  -20.9290   64.6880   24.5130 C   0  0  0  0  0  0  0  0  0  0  0  0
  -19.6950   64.5610   23.8680 C   0  0  0  0  0  0  0  0  0  0  0  0
  -19.5090   63.5850   22.8730 C   0  0  0  0  0  0  0  0  0  0  0  0
  -20.5630   62.7120   22.5700 C   0  0  0  0  0  0  0  0  0  0  0  0
  -21.7980   62.8390   23.2140 C   0  0  0  0  0  0  0  0  0  0  0  0
  -18.2430   63.4190   22.2120 N   0  0  0  0  0  0  0  0  0  0  0  0
  -17.6550   64.3980   21.3400 C   0  0  0  0  0  0  0  0  0  0  0  0
  -16.2400   64.2490   20.8820 C   0  0  0  0  0  0  0  0  0  0  0  0
  -18.3330   65.3740   20.9220 O   0  0  0  0  0  0  0  0  0  0  0  0
  -17.7630   62.4930   22.3010 H   0  0  0  0  0  0  0  0  0  0  0  0
  -25.2480   65.2600   24.8700 O   0  0  0  0  0  0  0  0  0  0  0  0
  -26.3120   64.9490   25.7300 C   0  0  0  0  0  0  0  0  0  0  0  0
  -26.0190   64.3760   26.9730 C   0  0  0  0  0  0  0  0  0  0  0  0
  -27.0440   64.0590   27.8700 C   0  0  0  0  0  0  0  0  0  0  0  0
  -28.3840   64.3360   27.5430 C   0  0  0  0  0  0  0  0  0  0  0  0
  -28.6770   64.9080   26.2980 C   0  0  0  0  0  0  0  0  0  0  0  0
  -27.6510   65.2250   25.4010 C   0  0  0  0  0  0  0  0  0  0  0  0
  -29.4600   64.0000   28.4360 N   0  0  0  0  0  0  0  0  0  0  0  0
  -30.1190   64.9420   29.2960 C   0  0  0  0  0  0  0  0  0  0  0  0
  -31.0860   64.4570   30.3270 C   0  0  0  0  0  0  0  0  0  0  0  0
  -29.9560   66.1820   29.1380 O   0  0  0  0  0  0  0  0  0  0  0  0
  -29.8420   63.0270   28.4000 H   0  0  0  0  0  0  0  0  0  0  0  0
  1  2  2  0  0  0  0
  3  1  1  0  0  0  0
  4  5  1  0  0  0  0
  4  3  1  0  0  0  0
  6  5  2  0  0  0  0
  7  6  1  0  0  0  0
  8  7  2  0  0  0  0
  8  9  1  0  0  0  0
  9  4  2  0  0  0  0
 10 14  1  0  0  0  0
 10  7  1  0  0  0  0
 11 10  1  0  0  0  0
 12 11  1  0  0  0  0
 13 11  2  0  0  0  0
 15  1  1  0  0  0  0
 15 16  1  0  0  0  0
 16 17  1  0  0  0  0
 17 18  2  0  0  0  0
 19 18  1  0  0  0  0
 19 22  1  0  0  0  0
 20 19  2  0  0  0  0
 21 16  2  0  0  0  0
 21 20  1  0  0  0  0
 22 23  1  0  0  0  0
 23 24  1  0  0  0  0
 25 23  2  0  0  0  0
 26 22  1  0  0  0  0
M  END
>  <REMARK>
 VINA RESULT:      -7.0      2.163     10.618
  6 active torsions:
  status: ('A' for Active; 'I' for Inactive)
       I    between atoms: C2_2  and  N1_4 
    1  A    between atoms: N1_4  and  C3_5 
    2  A    between atoms: C6_8  and  O2_9 
    3  A    between atoms: O2_9  and  C7_10 
    4  A    between atoms: C7_10  and  O4_12 
    5  A    between atoms: O4_12  and  C8_13 
    6  A    between atoms: C11_16  and  N2_17 
       I    between atoms: N2_17  and  C12_18 

>  <TORSDO>
F 6

$$$$
