../pdbqt/decoy.vina_out.72.pdbqt
 OpenBabel06052021513D

 15 16  0  0  0  0  0  0  0  0999 V2000
  -26.3870   66.4780   23.0760 C   0  0  0  0  0  0  0  0  0  0  0  0
  -25.1130   66.9350   23.1690 N   0  0  0  0  0  0  0  0  0  0  0  0
  -24.3820   66.6840   24.2840 C   0  0  0  0  0  0  0  0  0  0  0  0
  -24.9260   65.9760   25.3060 N   0  0  0  0  0  0  0  0  0  0  0  0
  -26.2020   65.5140   25.2230 C   0  0  0  0  0  0  0  0  0  0  0  0
  -26.9280   65.7710   24.1000 N   0  0  0  0  0  0  0  0  0  0  0  0
  -26.7800   64.7620   26.3100 N   0  0  0  0  0  0  0  0  0  0  0  0
  -25.9210   63.9140   27.1490 C   0  0  0  0  0  0  0  0  0  0  0  0
  -26.5750   63.6680   28.5120 C   0  0  0  0  0  0  0  0  0  0  0  0
  -27.9040   63.2120   28.3580 O   0  0  0  0  0  0  0  0  0  0  0  0
  -28.6890   64.2370   27.7830 C   0  0  0  0  0  0  0  0  0  0  0  0
  -28.2320   64.5360   26.3520 C   0  0  0  0  0  0  0  0  0  0  0  0
  -27.1560   66.7410   21.9050 N   0  0  0  0  0  0  0  0  0  0  0  0
  -27.2680   67.7180   21.5540 H   0  0  0  0  0  0  0  0  0  0  0  0
  -27.6150   65.9590   21.3870 H   0  0  0  0  0  0  0  0  0  0  0  0
  1  2  2  0  0  0  0
  1  6  1  0  0  0  0
  2  3  1  0  0  0  0
  3  4  1  0  0  0  0
  5  4  2  0  0  0  0
  5  7  1  0  0  0  0
  6  5  1  0  0  0  0
  7 12  1  0  0  0  0
  7  8  1  0  0  0  0
  8  9  1  0  0  0  0
 10  9  1  0  0  0  0
 11 10  1  0  0  0  0
 12 11  1  0  0  0  0
 13  1  1  0  0  0  0
 14 13  1  0  0  0  0
 15 13  1  0  0  0  0
M  END
>  <MODEL>
1

>  <REMARK>
 VINA RESULT:      -6.0      0.000      0.000
  2 active torsions:
  status: ('A' for Active; 'I' for Inactive)
    1  A    between atoms: N1_1  and  C1_2 
    2  A    between atoms: C3_6  and  N4_7 

>  <TORSDO>
F 2

$$$$
../pdbqt/decoy.vina_out.72.pdbqt
 OpenBabel06052021513D

 15 16  0  0  0  0  0  0  0  0999 V2000
  -27.2840   66.3510   22.9780 C   0  0  0  0  0  0  0  0  0  0  0  0
  -28.6130   66.3780   23.2530 N   0  0  0  0  0  0  0  0  0  0  0  0
  -29.0650   65.9490   24.4580 C   0  0  0  0  0  0  0  0  0  0  0  0
  -28.1880   65.4920   25.3870 N   0  0  0  0  0  0  0  0  0  0  0  0
  -26.8550   65.4600   25.1210 C   0  0  0  0  0  0  0  0  0  0  0  0
  -26.4110   65.8930   23.9100 N   0  0  0  0  0  0  0  0  0  0  0  0
  -25.9230   64.9740   26.1100 N   0  0  0  0  0  0  0  0  0  0  0  0
  -24.4790   65.0370   25.8460 C   0  0  0  0  0  0  0  0  0  0  0  0
  -23.6910   65.0120   27.1590 C   0  0  0  0  0  0  0  0  0  0  0  0
  -24.1070   63.9370   27.9770 O   0  0  0  0  0  0  0  0  0  0  0  0
  -25.4440   64.1480   28.3850 C   0  0  0  0  0  0  0  0  0  0  0  0
  -26.3960   64.0910   27.1870 C   0  0  0  0  0  0  0  0  0  0  0  0
  -26.8080   66.8020   21.7120 N   0  0  0  0  0  0  0  0  0  0  0  0
  -27.4730   66.9630   20.9240 H   0  0  0  0  0  0  0  0  0  0  0  0
  -25.7890   66.9740   21.5620 H   0  0  0  0  0  0  0  0  0  0  0  0
  1  2  2  0  0  0  0
  1  6  1  0  0  0  0
  2  3  1  0  0  0  0
  3  4  1  0  0  0  0
  5  4  2  0  0  0  0
  5  7  1  0  0  0  0
  6  5  1  0  0  0  0
  7 12  1  0  0  0  0
  8  7  1  0  0  0  0
  8  9  1  0  0  0  0
  9 10  1  0  0  0  0
 10 11  1  0  0  0  0
 12 11  1  0  0  0  0
 13  1  1  0  0  0  0
 14 13  1  0  0  0  0
 15 13  1  0  0  0  0
M  END
>  <REMARK>
 VINA RESULT:      -5.8      1.813      2.714
  2 active torsions:
  status: ('A' for Active; 'I' for Inactive)
    1  A    between atoms: N1_1  and  C1_2 
    2  A    between atoms: C3_6  and  N4_7 

>  <TORSDO>
F 2

$$$$
../pdbqt/decoy.vina_out.72.pdbqt
 OpenBabel06052021513D

 15 16  0  0  0  0  0  0  0  0999 V2000
  -26.2990   66.7450   23.7650 C   0  0  0  0  0  0  0  0  0  0  0  0
  -27.5310   66.8180   23.2010 N   0  0  0  0  0  0  0  0  0  0  0  0
  -28.5540   66.0850   23.7090 C   0  0  0  0  0  0  0  0  0  0  0  0
  -28.3440   65.2800   24.7800 N   0  0  0  0  0  0  0  0  0  0  0  0
  -27.1130   65.1990   25.3520 C   0  0  0  0  0  0  0  0  0  0  0  0
  -26.0930   65.9380   24.8360 N   0  0  0  0  0  0  0  0  0  0  0  0
  -26.8900   64.3430   26.4920 N   0  0  0  0  0  0  0  0  0  0  0  0
  -27.9720   64.1220   27.4630 C   0  0  0  0  0  0  0  0  0  0  0  0
  -27.7470   62.8170   28.2320 C   0  0  0  0  0  0  0  0  0  0  0  0
  -26.4400   62.7670   28.7670 O   0  0  0  0  0  0  0  0  0  0  0  0
  -25.5020   62.7070   27.7110 C   0  0  0  0  0  0  0  0  0  0  0  0
  -25.5170   64.0020   26.8930 C   0  0  0  0  0  0  0  0  0  0  0  0
  -25.2240   67.5140   23.2310 N   0  0  0  0  0  0  0  0  0  0  0  0
  -24.9240   68.3980   23.6970 H   0  0  0  0  0  0  0  0  0  0  0  0
  -24.7270   67.1990   22.3680 H   0  0  0  0  0  0  0  0  0  0  0  0
  1  6  1  0  0  0  0
  2  3  1  0  0  0  0
  2  1  2  0  0  0  0
  3  4  1  0  0  0  0
  4  5  2  0  0  0  0
  5  7  1  0  0  0  0
  6  5  1  0  0  0  0
  7 12  1  0  0  0  0
  7  8  1  0  0  0  0
  8  9  1  0  0  0  0
  9 10  1  0  0  0  0
 11 10  1  0  0  0  0
 12 11  1  0  0  0  0
 13 14  1  0  0  0  0
 13  1  1  0  0  0  0
 15 13  1  0  0  0  0
M  END
>  <REMARK>
 VINA RESULT:      -5.7      1.259      2.401
  2 active torsions:
  status: ('A' for Active; 'I' for Inactive)
    1  A    between atoms: N1_1  and  C1_2 
    2  A    between atoms: C3_6  and  N4_7 

>  <TORSDO>
F 2

$$$$
../pdbqt/decoy.vina_out.72.pdbqt
 OpenBabel06052021513D

 15 16  0  0  0  0  0  0  0  0999 V2000
  -27.7970   63.7220   28.1390 C   0  0  0  0  0  0  0  0  0  0  0  0
  -26.5730   63.5680   28.7040 N   0  0  0  0  0  0  0  0  0  0  0  0
  -25.4700   64.0400   28.0710 C   0  0  0  0  0  0  0  0  0  0  0  0
  -25.5910   64.6640   26.8730 N   0  0  0  0  0  0  0  0  0  0  0  0
  -26.8130   64.8230   26.2970 C   0  0  0  0  0  0  0  0  0  0  0  0
  -27.9140   64.3470   26.9400 N   0  0  0  0  0  0  0  0  0  0  0  0
  -26.9400   65.4880   25.0230 N   0  0  0  0  0  0  0  0  0  0  0  0
  -28.1270   65.2490   24.1900 C   0  0  0  0  0  0  0  0  0  0  0  0
  -28.3400   66.4070   23.2110 C   0  0  0  0  0  0  0  0  0  0  0  0
  -27.1520   66.6890   22.4990 O   0  0  0  0  0  0  0  0  0  0  0  0
  -26.1710   67.1740   23.3940 C   0  0  0  0  0  0  0  0  0  0  0  0
  -25.7560   66.0870   24.3900 C   0  0  0  0  0  0  0  0  0  0  0  0
  -28.9570   63.2270   28.8030 N   0  0  0  0  0  0  0  0  0  0  0  0
  -29.8320   63.0350   28.2680 H   0  0  0  0  0  0  0  0  0  0  0  0
  -28.9420   63.0520   29.8330 H   0  0  0  0  0  0  0  0  0  0  0  0
  1  2  2  0  0  0  0
  1 13  1  0  0  0  0
  3  2  1  0  0  0  0
  4  3  1  0  0  0  0
  5  4  2  0  0  0  0
  5  6  1  0  0  0  0
  6  1  1  0  0  0  0
  7  5  1  0  0  0  0
  8  7  1  0  0  0  0
  9  8  1  0  0  0  0
 10  9  1  0  0  0  0
 10 11  1  0  0  0  0
 11 12  1  0  0  0  0
 12  7  1  0  0  0  0
 13 15  1  0  0  0  0
 14 13  1  0  0  0  0
M  END
>  <REMARK>
 VINA RESULT:      -5.6      2.584      5.058
  2 active torsions:
  status: ('A' for Active; 'I' for Inactive)
    1  A    between atoms: N1_1  and  C1_2 
    2  A    between atoms: C3_6  and  N4_7 

>  <TORSDO>
F 2

$$$$
../pdbqt/decoy.vina_out.72.pdbqt
 OpenBabel06052021513D

 15 16  0  0  0  0  0  0  0  0999 V2000
  -26.2900   62.7230   28.0300 C   0  0  0  0  0  0  0  0  0  0  0  0
  -27.3250   62.7530   28.9070 N   0  0  0  0  0  0  0  0  0  0  0  0
  -28.3650   63.5990   28.6990 C   0  0  0  0  0  0  0  0  0  0  0  0
  -28.3700   64.4140   27.6150 N   0  0  0  0  0  0  0  0  0  0  0  0
  -27.3370   64.3920   26.7300 C   0  0  0  0  0  0  0  0  0  0  0  0
  -26.2980   63.5400   26.9460 N   0  0  0  0  0  0  0  0  0  0  0  0
  -27.3440   65.2590   25.5770 N   0  0  0  0  0  0  0  0  0  0  0  0
  -26.0820   65.8350   25.0880 C   0  0  0  0  0  0  0  0  0  0  0  0
  -26.2070   66.2320   23.6150 C   0  0  0  0  0  0  0  0  0  0  0  0
  -27.3540   67.0290   23.4030 O   0  0  0  0  0  0  0  0  0  0  0  0
  -28.5140   66.2590   23.6490 C   0  0  0  0  0  0  0  0  0  0  0  0
  -28.6050   65.8660   25.1260 C   0  0  0  0  0  0  0  0  0  0  0  0
  -25.1960   61.8350   28.2470 N   0  0  0  0  0  0  0  0  0  0  0  0
  -24.8400   61.6610   29.2120 H   0  0  0  0  0  0  0  0  0  0  0  0
  -24.7420   61.3490   27.4410 H   0  0  0  0  0  0  0  0  0  0  0  0
  1 13  1  0  0  0  0
  1  2  2  0  0  0  0
  3  2  1  0  0  0  0
  4  3  1  0  0  0  0
  5  6  1  0  0  0  0
  5  4  2  0  0  0  0
  6  1  1  0  0  0  0
  7  5  1  0  0  0  0
  8  7  1  0  0  0  0
  9  8  1  0  0  0  0
 10  9  1  0  0  0  0
 10 11  1  0  0  0  0
 11 12  1  0  0  0  0
 12  7  1  0  0  0  0
 13 14  1  0  0  0  0
 15 13  1  0  0  0  0
M  END
>  <REMARK>
 VINA RESULT:      -5.6      2.620      5.179
  2 active torsions:
  status: ('A' for Active; 'I' for Inactive)
    1  A    between atoms: N1_1  and  C1_2 
    2  A    between atoms: C3_6  and  N4_7 

>  <TORSDO>
F 2

$$$$
../pdbqt/decoy.vina_out.72.pdbqt
 OpenBabel06052021513D

 15 16  0  0  0  0  0  0  0  0999 V2000
  -27.0230   62.9350   27.8640 C   0  0  0  0  0  0  0  0  0  0  0  0
  -25.7630   62.4900   28.1040 N   0  0  0  0  0  0  0  0  0  0  0  0
  -24.7210   62.9890   27.3940 C   0  0  0  0  0  0  0  0  0  0  0  0
  -24.9390   63.9320   26.4430 N   0  0  0  0  0  0  0  0  0  0  0  0
  -26.1980   64.3840   26.1940 C   0  0  0  0  0  0  0  0  0  0  0  0
  -27.2370   63.8770   26.9120 N   0  0  0  0  0  0  0  0  0  0  0  0
  -26.4280   65.3870   25.1830 N   0  0  0  0  0  0  0  0  0  0  0  0
  -25.3250   66.2580   24.7530 C   0  0  0  0  0  0  0  0  0  0  0  0
  -25.6020   66.8270   23.3590 C   0  0  0  0  0  0  0  0  0  0  0  0
  -26.8870   67.4110   23.2980 O   0  0  0  0  0  0  0  0  0  0  0  0
  -27.8680   66.4050   23.4570 C   0  0  0  0  0  0  0  0  0  0  0  0
  -27.8030   65.7970   24.8610 C   0  0  0  0  0  0  0  0  0  0  0  0
  -28.1190   62.4100   28.6110 N   0  0  0  0  0  0  0  0  0  0  0  0
  -27.9670   61.6520   29.3110 H   0  0  0  0  0  0  0  0  0  0  0  0
  -29.0840   62.7810   28.4620 H   0  0  0  0  0  0  0  0  0  0  0  0
  1  2  2  0  0  0  0
  1 13  1  0  0  0  0
  3  2  1  0  0  0  0
  4  3  1  0  0  0  0
  5  4  2  0  0  0  0
  5  6  1  0  0  0  0
  6  1  1  0  0  0  0
  7  5  1  0  0  0  0
  8  7  1  0  0  0  0
  9  8  1  0  0  0  0
 10  9  1  0  0  0  0
 10 11  1  0  0  0  0
 11 12  1  0  0  0  0
 12  7  1  0  0  0  0
 13 14  1  0  0  0  0
 15 13  1  0  0  0  0
M  END
>  <REMARK>
 VINA RESULT:      -5.5      2.566      4.891
  2 active torsions:
  status: ('A' for Active; 'I' for Inactive)
    1  A    between atoms: N1_1  and  C1_2 
    2  A    between atoms: C3_6  and  N4_7 

>  <TORSDO>
F 2

$$$$
../pdbqt/decoy.vina_out.72.pdbqt
 OpenBabel06052021513D

 15 16  0  0  0  0  0  0  0  0999 V2000
  -27.9630   65.8060   23.6900 C   0  0  0  0  0  0  0  0  0  0  0  0
  -27.6800   66.5650   22.6010 N   0  0  0  0  0  0  0  0  0  0  0  0
  -26.4140   67.0050   22.3920 C   0  0  0  0  0  0  0  0  0  0  0  0
  -25.4320   66.6860   23.2720 N   0  0  0  0  0  0  0  0  0  0  0  0
  -25.7050   65.9270   24.3670 C   0  0  0  0  0  0  0  0  0  0  0  0
  -26.9780   65.4900   24.5680 N   0  0  0  0  0  0  0  0  0  0  0  0
  -24.6600   65.5880   25.3020 N   0  0  0  0  0  0  0  0  0  0  0  0
  -23.2790   66.0230   25.0430 C   0  0  0  0  0  0  0  0  0  0  0  0
  -22.4760   66.0640   26.3460 C   0  0  0  0  0  0  0  0  0  0  0  0
  -22.6010   64.8470   27.0540 O   0  0  0  0  0  0  0  0  0  0  0  0
  -23.9390   64.6880   27.4830 C   0  0  0  0  0  0  0  0  0  0  0  0
  -24.8790   64.5180   26.2860 C   0  0  0  0  0  0  0  0  0  0  0  0
  -29.2940   65.3430   23.9110 N   0  0  0  0  0  0  0  0  0  0  0  0
  -29.5110   64.7260   24.7240 H   0  0  0  0  0  0  0  0  0  0  0  0
  -30.0630   65.6170   23.2600 H   0  0  0  0  0  0  0  0  0  0  0  0
  1 13  1  0  0  0  0
  1  6  1  0  0  0  0
  2  1  2  0  0  0  0
  3  2  1  0  0  0  0
  3  4  1  0  0  0  0
  4  5  2  0  0  0  0
  5  6  1  0  0  0  0
  5  7  1  0  0  0  0
  7 12  1  0  0  0  0
  8  7  1  0  0  0  0
  8  9  1  0  0  0  0
  9 10  1  0  0  0  0
 10 11  1  0  0  0  0
 12 11  1  0  0  0  0
 13 14  1  0  0  0  0
 15 13  1  0  0  0  0
M  END
>  <REMARK>
 VINA RESULT:      -5.5      2.451      3.408
  2 active torsions:
  status: ('A' for Active; 'I' for Inactive)
    1  A    between atoms: N1_1  and  C1_2 
    2  A    between atoms: C3_6  and  N4_7 

>  <TORSDO>
F 2

$$$$
../pdbqt/decoy.vina_out.72.pdbqt
 OpenBabel06052021513D

 15 16  0  0  0  0  0  0  0  0999 V2000
  -27.4840   66.7660   23.9980 C   0  0  0  0  0  0  0  0  0  0  0  0
  -26.5820   67.4850   23.2820 N   0  0  0  0  0  0  0  0  0  0  0  0
  -25.2540   67.2900   23.4740 C   0  0  0  0  0  0  0  0  0  0  0  0
  -24.8270   66.3760   24.3820 N   0  0  0  0  0  0  0  0  0  0  0  0
  -25.7230   65.6520   25.1050 C   0  0  0  0  0  0  0  0  0  0  0  0
  -27.0530   65.8540   24.9050 N   0  0  0  0  0  0  0  0  0  0  0  0
  -25.2680   64.6800   26.0700 N   0  0  0  0  0  0  0  0  0  0  0  0
  -26.1780   64.2210   27.1300 C   0  0  0  0  0  0  0  0  0  0  0  0
  -25.7340   62.8570   27.6660 C   0  0  0  0  0  0  0  0  0  0  0  0
  -24.3650   62.8740   28.0150 O   0  0  0  0  0  0  0  0  0  0  0  0
  -23.5850   63.0520   26.8490 C   0  0  0  0  0  0  0  0  0  0  0  0
  -23.8280   64.4350   26.2370 C   0  0  0  0  0  0  0  0  0  0  0  0
  -28.8810   66.9700   23.7960 N   0  0  0  0  0  0  0  0  0  0  0  0
  -29.3030   66.8430   22.8510 H   0  0  0  0  0  0  0  0  0  0  0  0
  -29.4940   67.2500   24.5950 H   0  0  0  0  0  0  0  0  0  0  0  0
  1  6  1  0  0  0  0
  2  3  1  0  0  0  0
  2  1  2  0  0  0  0
  3  4  1  0  0  0  0
  4  5  2  0  0  0  0
  5  7  1  0  0  0  0
  6  5  1  0  0  0  0
  7 12  1  0  0  0  0
  7  8  1  0  0  0  0
  8  9  1  0  0  0  0
  9 10  1  0  0  0  0
 11 10  1  0  0  0  0
 12 11  1  0  0  0  0
 13  1  1  0  0  0  0
 13 15  1  0  0  0  0
 14 13  1  0  0  0  0
M  END
>  <REMARK>
 VINA RESULT:      -5.5      1.801      2.481
  2 active torsions:
  status: ('A' for Active; 'I' for Inactive)
    1  A    between atoms: N1_1  and  C1_2 
    2  A    between atoms: C3_6  and  N4_7 

>  <TORSDO>
F 2

$$$$
../pdbqt/decoy.vina_out.72.pdbqt
 OpenBabel06052021513D

 15 16  0  0  0  0  0  0  0  0999 V2000
  -22.6680   66.5770   24.9570 C   0  0  0  0  0  0  0  0  0  0  0  0
  -22.2510   65.9840   26.1050 N   0  0  0  0  0  0  0  0  0  0  0  0
  -23.1350   65.3000   26.8740 C   0  0  0  0  0  0  0  0  0  0  0  0
  -24.4350   65.2110   26.4960 N   0  0  0  0  0  0  0  0  0  0  0  0
  -24.8630   65.8020   25.3490 C   0  0  0  0  0  0  0  0  0  0  0  0
  -23.9690   66.4860   24.5830 N   0  0  0  0  0  0  0  0  0  0  0  0
  -26.2460   65.7060   24.9480 N   0  0  0  0  0  0  0  0  0  0  0  0
  -27.1990   64.9630   25.7850 C   0  0  0  0  0  0  0  0  0  0  0  0
  -28.6310   65.4310   25.5140 C   0  0  0  0  0  0  0  0  0  0  0  0
  -28.9110   65.4210   24.1280 O   0  0  0  0  0  0  0  0  0  0  0  0
  -28.1080   66.3860   23.4790 C   0  0  0  0  0  0  0  0  0  0  0  0
  -26.6260   66.0060   23.5600 C   0  0  0  0  0  0  0  0  0  0  0  0
  -21.7400   67.2960   24.1480 N   0  0  0  0  0  0  0  0  0  0  0  0
  -21.7950   68.3360   24.0770 H   0  0  0  0  0  0  0  0  0  0  0  0
  -20.9970   66.7880   23.6180 H   0  0  0  0  0  0  0  0  0  0  0  0
  1  2  2  0  0  0  0
  2  3  1  0  0  0  0
  4  3  1  0  0  0  0
  5  4  2  0  0  0  0
  6  1  1  0  0  0  0
  6  5  1  0  0  0  0
  7  5  1  0  0  0  0
  7  8  1  0  0  0  0
  9  8  1  0  0  0  0
 10  9  1  0  0  0  0
 11 12  1  0  0  0  0
 11 10  1  0  0  0  0
 12  7  1  0  0  0  0
 13  1  1  0  0  0  0
 14 13  1  0  0  0  0
 15 13  1  0  0  0  0
M  END
>  <REMARK>
 VINA RESULT:      -5.2      2.339      3.693
  2 active torsions:
  status: ('A' for Active; 'I' for Inactive)
    1  A    between atoms: N1_1  and  C1_2 
    2  A    between atoms: C3_6  and  N4_7 

>  <TORSDO>
F 2

$$$$
