../pdbqt/decoy.vina_out.26.pdbqt
 OpenBabel06052021513D

 30 32  0  0  1  0  0  0  0  0999 V2000
  -20.9220   65.3750   25.2140 C   0  0  0  0  0  0  0  0  0  0  0  0
  -20.1370   66.4600   24.7490 C   0  0  0  0  0  0  0  0  0  0  0  0
  -18.8550   66.6000   25.1870 N   0  0  0  0  0  0  0  0  0  0  0  0
  -18.2790   67.4010   24.8400 H   0  0  0  0  0  0  0  0  0  0  0  0
  -18.3020   65.7120   26.0520 C   0  0  2  0  0  0  0  0  0  0  0  0
  -19.0300   64.6630   26.5010 N   0  0  0  0  0  0  0  0  0  0  0  0
  -20.3160   64.4600   26.1070 C   0  0  0  0  0  0  0  0  0  0  0  0
  -22.3440   65.2400   24.8060 C   0  0  0  0  0  0  0  0  0  0  0  0
  -23.2390   66.0900   25.2160 N   0  0  0  0  0  0  0  0  0  0  0  0
  -24.6430   66.0710   24.9080 C   0  0  0  0  0  0  0  0  0  0  0  0
  -25.1840   66.7110   23.7730 C   0  0  0  0  0  0  0  0  0  0  0  0
  -26.5590   66.6470   23.5180 C   0  0  0  0  0  0  0  0  0  0  0  0
  -27.4020   65.9430   24.3820 C   0  0  0  0  0  0  0  0  0  0  0  0
  -29.2770   65.8580   24.0300 Br  0  0  0  0  0  0  0  0  0  0  0  0
  -26.8690   65.2950   25.5000 C   0  0  0  0  0  0  0  0  0  0  0  0
  -25.4970   65.3550   25.7580 C   0  0  0  0  0  0  0  0  0  0  0  0
  -20.6460   67.4000   23.7920 N   0  0  0  0  0  0  0  0  0  0  0  0
  -21.4460   67.1350   23.1740 H   0  0  0  0  0  0  0  0  0  0  0  0
  -20.3170   68.3880   23.7430 H   0  0  0  0  0  0  0  0  0  0  0  0
  -21.0060   63.4680   26.5990 N   0  0  0  0  0  0  0  0  0  0  0  0
  -22.1830   63.5470   27.4200 C   0  0  0  0  0  0  0  0  0  0  0  0
  -23.2510   62.6840   27.1450 C   0  0  0  0  0  0  0  0  0  0  0  0
  -24.4000   62.7020   27.9410 C   0  0  0  0  0  0  0  0  0  0  0  0
  -24.4820   63.5700   29.0350 C   0  0  0  0  0  0  0  0  0  0  0  0
  -26.0510   63.5910   30.1240 Br  0  0  0  0  0  0  0  0  0  0  0  0
  -23.4080   64.4120   29.3370 C   0  0  0  0  0  0  0  0  0  0  0  0
  -22.2580   64.3960   28.5420 C   0  0  0  0  0  0  0  0  0  0  0  0
  -16.9540   65.8770   26.4940 N   0  0  0  0  0  0  0  0  0  0  0  0
  -16.6740   65.6180   27.4650 H   0  0  0  0  0  0  0  0  0  0  0  0
  -16.2310   66.2630   25.8450 H   0  0  0  0  0  0  0  0  0  0  0  0
  1  7  1  0  0  0  0
  2  3  1  0  0  0  0
  2  1  2  0  0  0  0
  3  5  1  0  0  0  0
  4  3  1  0  0  0  0
  5 28  1  1  0  0  0
  5  6  1  0  0  0  0
  7  6  2  0  0  0  0
  7 20  1  0  0  0  0
  8  1  1  0  0  0  0
  8  9  2  0  0  0  0
 10  9  1  0  0  0  0
 10 16  2  0  0  0  0
 11 10  1  0  0  0  0
 12 11  2  0  0  0  0
 12 13  1  0  0  0  0
 13 15  2  0  0  0  0
 14 13  1  0  0  0  0
 15 16  1  0  0  0  0
 17  2  1  0  0  0  0
 18 17  1  0  0  0  0
 19 17  1  0  0  0  0
 20 21  1  0  0  0  0
 21 27  1  0  0  0  0
 22 21  2  0  0  0  0
 22 23  1  0  0  0  0
 23 24  2  0  0  0  0
 24 26  1  0  0  0  0
 24 25  1  0  0  0  0
 27 26  2  0  0  0  0
 28 29  1  0  0  0  0
 30 28  1  0  0  0  0
M  END
>  <MODEL>
1

>  <REMARK>
 VINA RESULT:      -7.8      0.000      0.000
  6 active torsions:
  status: ('A' for Active; 'I' for Inactive)
    1  A    between atoms: C1_1  and  C8_10 
    2  A    between atoms: N1_2  and  C2_3 
    3  A    between atoms: C9_11  and  N2_12 
    4  A    between atoms: C10_17  and  N4_18 
    5  A    between atoms: C11_22  and  N6_23 
    6  A    between atoms: N6_23  and  C12_24 

>  <TORSDO>
F 6

$$$$
../pdbqt/decoy.vina_out.26.pdbqt
 OpenBabel06052021513D

 30 32  0  0  1  0  0  0  0  0999 V2000
  -24.6610   63.6380   29.8460 C   0  0  0  0  0  0  0  0  0  0  0  0
  -24.2090   64.2300   31.0510 C   0  0  0  0  0  0  0  0  0  0  0  0
  -25.1080   64.8140   31.8930 N   0  0  0  0  0  0  0  0  0  0  0  0
  -24.7710   65.2480   32.7820 H   0  0  0  0  0  0  0  0  0  0  0  0
  -26.4350   64.8300   31.6100 C   0  0  1  0  0  0  0  0  0  0  0  0
  -26.8890   64.2600   30.4680 N   0  0  0  0  0  0  0  0  0  0  0  0
  -26.0510   63.6610   29.5810 C   0  0  0  0  0  0  0  0  0  0  0  0
  -23.6930   63.0570   28.8790 C   0  0  0  0  0  0  0  0  0  0  0  0
  -22.9910   63.8240   28.0970 N   0  0  0  0  0  0  0  0  0  0  0  0
  -22.0330   63.3960   27.1140 C   0  0  0  0  0  0  0  0  0  0  0  0
  -20.6410   63.4330   27.3390 C   0  0  0  0  0  0  0  0  0  0  0  0
  -19.7570   62.9910   26.3480 C   0  0  0  0  0  0  0  0  0  0  0  0
  -20.2480   62.5050   25.1340 C   0  0  0  0  0  0  0  0  0  0  0  0
  -19.0370   61.9030   23.7850 Br  0  0  0  0  0  0  0  0  0  0  0  0
  -21.6260   62.4530   24.9110 C   0  0  0  0  0  0  0  0  0  0  0  0
  -22.5130   62.8920   25.8980 C   0  0  0  0  0  0  0  0  0  0  0  0
  -22.8270   64.1970   31.4340 N   0  0  0  0  0  0  0  0  0  0  0  0
  -22.1010   64.6100   30.8060 H   0  0  0  0  0  0  0  0  0  0  0  0
  -22.5090   63.8620   32.3680 H   0  0  0  0  0  0  0  0  0  0  0  0
  -26.5150   63.1680   28.4670 N   0  0  0  0  0  0  0  0  0  0  0  0
  -26.8980   63.8920   27.2850 C   0  0  0  0  0  0  0  0  0  0  0  0
  -28.2410   63.8690   26.8910 C   0  0  0  0  0  0  0  0  0  0  0  0
  -28.6630   64.5890   25.7680 C   0  0  0  0  0  0  0  0  0  0  0  0
  -27.7460   65.3550   25.0420 C   0  0  0  0  0  0  0  0  0  0  0  0
  -28.3240   66.3410   23.5120 Br  0  0  0  0  0  0  0  0  0  0  0  0
  -26.4100   65.4100   25.4480 C   0  0  0  0  0  0  0  0  0  0  0  0
  -25.9860   64.6920   26.5690 C   0  0  0  0  0  0  0  0  0  0  0  0
  -27.3590   65.4440   32.5090 N   0  0  0  0  0  0  0  0  0  0  0  0
  -28.0230   64.8660   33.0700 H   0  0  0  0  0  0  0  0  0  0  0  0
  -27.3790   66.4830   32.6140 H   0  0  0  0  0  0  0  0  0  0  0  0
  1  2  2  0  0  0  0
  2 17  1  0  0  0  0
  2  3  1  0  0  0  0
  3  4  1  0  0  0  0
  5  3  1  0  0  0  0
  5 28  1  1  0  0  0
  6  5  1  0  0  0  0
  7  1  1  0  0  0  0
  7  6  2  0  0  0  0
  8  1  1  0  0  0  0
  9  8  2  0  0  0  0
 10 11  1  0  0  0  0
 10  9  1  0  0  0  0
 12 11  2  0  0  0  0
 13 12  1  0  0  0  0
 14 13  1  0  0  0  0
 15 13  2  0  0  0  0
 15 16  1  0  0  0  0
 16 10  2  0  0  0  0
 17 19  1  0  0  0  0
 18 17  1  0  0  0  0
 20  7  1  0  0  0  0
 21 20  1  0  0  0  0
 22 21  1  0  0  0  0
 23 22  2  0  0  0  0
 24 26  2  0  0  0  0
 24 23  1  0  0  0  0
 25 24  1  0  0  0  0
 26 27  1  0  0  0  0
 27 21  2  0  0  0  0
 28 30  1  0  0  0  0
 28 29  1  0  0  0  0
M  END
>  <REMARK>
 VINA RESULT:      -7.6      3.873      7.118
  6 active torsions:
  status: ('A' for Active; 'I' for Inactive)
    1  A    between atoms: C1_1  and  C8_10 
    2  A    between atoms: N1_2  and  C2_3 
    3  A    between atoms: C9_11  and  N2_12 
    4  A    between atoms: C10_17  and  N4_18 
    5  A    between atoms: C11_22  and  N6_23 
    6  A    between atoms: N6_23  and  C12_24 

>  <TORSDO>
F 6

$$$$
../pdbqt/decoy.vina_out.26.pdbqt
 OpenBabel06052021513D

 30 32  0  0  1  0  0  0  0  0999 V2000
  -21.0540   64.1010   24.0330 C   0  0  0  0  0  0  0  0  0  0  0  0
  -20.6330   62.8560   23.5040 C   0  0  0  0  0  0  0  0  0  0  0  0
  -19.4230   62.7610   22.8850 N   0  0  0  0  0  0  0  0  0  0  0  0
  -19.1150   61.8400   22.4980 H   0  0  0  0  0  0  0  0  0  0  0  0
  -18.5980   63.8340   22.7760 C   0  0  1  0  0  0  0  0  0  0  0  0
  -18.9770   65.0310   23.2850 N   0  0  0  0  0  0  0  0  0  0  0  0
  -20.1700   65.2000   23.9130 C   0  0  0  0  0  0  0  0  0  0  0  0
  -22.3980   64.2460   24.6490 C   0  0  0  0  0  0  0  0  0  0  0  0
  -22.7380   63.5330   25.6820 N   0  0  0  0  0  0  0  0  0  0  0  0
  -24.0020   63.5660   26.3670 C   0  0  0  0  0  0  0  0  0  0  0  0
  -24.9960   64.5270   26.0890 C   0  0  0  0  0  0  0  0  0  0  0  0
  -26.2120   64.5010   26.7800 C   0  0  0  0  0  0  0  0  0  0  0  0
  -26.4520   63.5180   27.7440 C   0  0  0  0  0  0  0  0  0  0  0  0
  -28.1140   63.4860   28.6850 Br  0  0  0  0  0  0  0  0  0  0  0  0
  -25.4770   62.5550   28.0140 C   0  0  0  0  0  0  0  0  0  0  0  0
  -24.2600   62.5760   27.3250 C   0  0  0  0  0  0  0  0  0  0  0  0
  -21.4340   61.6730   23.6360 N   0  0  0  0  0  0  0  0  0  0  0  0
  -22.1660   61.6180   24.3790 H   0  0  0  0  0  0  0  0  0  0  0  0
  -21.3900   60.8840   22.9560 H   0  0  0  0  0  0  0  0  0  0  0  0
  -20.5260   66.3780   24.3450 N   0  0  0  0  0  0  0  0  0  0  0  0
  -20.1660   66.9950   25.5930 C   0  0  0  0  0  0  0  0  0  0  0  0
  -21.1290   67.0680   26.6070 C   0  0  0  0  0  0  0  0  0  0  0  0
  -20.8100   67.6280   27.8480 C   0  0  0  0  0  0  0  0  0  0  0  0
  -19.5160   68.1000   28.0930 C   0  0  0  0  0  0  0  0  0  0  0  0
  -19.0810   68.8600   29.7900 Br  0  0  0  0  0  0  0  0  0  0  0  0
  -18.5390   68.0010   27.0980 C   0  0  0  0  0  0  0  0  0  0  0  0
  -18.8560   67.4420   25.8560 C   0  0  0  0  0  0  0  0  0  0  0  0
  -17.3320   63.7100   22.1280 N   0  0  0  0  0  0  0  0  0  0  0  0
  -16.7070   64.5370   22.0140 H   0  0  0  0  0  0  0  0  0  0  0  0
  -17.0190   62.7840   21.7580 H   0  0  0  0  0  0  0  0  0  0  0  0
  1  8  1  0  0  0  0
  2 17  1  0  0  0  0
  2  1  2  0  0  0  0
  3  2  1  0  0  0  0
  4  3  1  0  0  0  0
  5 28  1  1  0  0  0
  5  3  1  0  0  0  0
  5  6  1  0  0  0  0
  6  7  2  0  0  0  0
  7  1  1  0  0  0  0
  7 20  1  0  0  0  0
  8  9  2  0  0  0  0
  9 10  1  0  0  0  0
 10 16  1  0  0  0  0
 11 10  2  0  0  0  0
 11 12  1  0  0  0  0
 12 13  2  0  0  0  0
 13 15  1  0  0  0  0
 13 14  1  0  0  0  0
 16 15  2  0  0  0  0
 17 18  1  0  0  0  0
 19 17  1  0  0  0  0
 20 21  1  0  0  0  0
 21 27  2  0  0  0  0
 21 22  1  0  0  0  0
 22 23  2  0  0  0  0
 23 24  1  0  0  0  0
 24 25  1  0  0  0  0
 26 24  2  0  0  0  0
 27 26  1  0  0  0  0
 29 28  1  0  0  0  0
 30 28  1  0  0  0  0
M  END
>  <REMARK>
 VINA RESULT:      -7.4      2.980      4.599
  6 active torsions:
  status: ('A' for Active; 'I' for Inactive)
    1  A    between atoms: C1_1  and  C8_10 
    2  A    between atoms: N1_2  and  C2_3 
    3  A    between atoms: C9_11  and  N2_12 
    4  A    between atoms: C10_17  and  N4_18 
    5  A    between atoms: C11_22  and  N6_23 
    6  A    between atoms: N6_23  and  C12_24 

>  <TORSDO>
F 6

$$$$
../pdbqt/decoy.vina_out.26.pdbqt
 OpenBabel06052021513D

 30 32  0  0  1  0  0  0  0  0999 V2000
  -21.4580   64.2910   27.4940 C   0  0  0  0  0  0  0  0  0  0  0  0
  -21.3290   64.6160   28.8670 C   0  0  0  0  0  0  0  0  0  0  0  0
  -20.3410   64.0390   29.6060 N   0  0  0  0  0  0  0  0  0  0  0  0
  -20.2470   64.2830   30.6180 H   0  0  0  0  0  0  0  0  0  0  0  0
  -19.4610   63.1660   29.0510 C   0  0  2  0  0  0  0  0  0  0  0  0
  -19.5600   62.8500   27.7380 N   0  0  0  0  0  0  0  0  0  0  0  0
  -20.5220   63.3860   26.9410 C   0  0  0  0  0  0  0  0  0  0  0  0
  -22.5700   64.8530   26.6840 C   0  0  0  0  0  0  0  0  0  0  0  0
  -23.8020   64.4990   26.9080 N   0  0  0  0  0  0  0  0  0  0  0  0
  -24.9660   64.9540   26.1970 C   0  0  0  0  0  0  0  0  0  0  0  0
  -24.8890   65.7880   25.0620 C   0  0  0  0  0  0  0  0  0  0  0  0
  -26.0580   66.1890   24.4040 C   0  0  0  0  0  0  0  0  0  0  0  0
  -27.3060   65.7590   24.8620 C   0  0  0  0  0  0  0  0  0  0  0  0
  -28.8970   66.3080   23.9600 Br  0  0  0  0  0  0  0  0  0  0  0  0
  -27.3870   64.9210   25.9770 C   0  0  0  0  0  0  0  0  0  0  0  0
  -26.2220   64.5170   26.6370 C   0  0  0  0  0  0  0  0  0  0  0  0
  -22.1920   65.5730   29.4980 N   0  0  0  0  0  0  0  0  0  0  0  0
  -21.7970   66.2740   30.1640 H   0  0  0  0  0  0  0  0  0  0  0  0
  -23.2000   65.6720   29.2490 H   0  0  0  0  0  0  0  0  0  0  0  0
  -20.6200   63.0200   25.6930 N   0  0  0  0  0  0  0  0  0  0  0  0
  -19.7550   63.3870   24.6050 C   0  0  0  0  0  0  0  0  0  0  0  0
  -20.0450   64.5490   23.8800 C   0  0  0  0  0  0  0  0  0  0  0  0
  -19.2090   64.9610   22.8370 C   0  0  0  0  0  0  0  0  0  0  0  0
  -18.0620   64.2240   22.5250 C   0  0  0  0  0  0  0  0  0  0  0  0
  -16.9190   64.7910   21.1040 Br  0  0  0  0  0  0  0  0  0  0  0  0
  -17.7470   63.0810   23.2650 C   0  0  0  0  0  0  0  0  0  0  0  0
  -18.5810   62.6670   24.3070 C   0  0  0  0  0  0  0  0  0  0  0  0
  -18.4300   62.5780   29.8450 N   0  0  0  0  0  0  0  0  0  0  0  0
  -17.9320   61.7190   29.5220 H   0  0  0  0  0  0  0  0  0  0  0  0
  -18.1640   63.0030   30.7610 H   0  0  0  0  0  0  0  0  0  0  0  0
  1  2  2  0  0  0  0
  2 17  1  0  0  0  0
  2  3  1  0  0  0  0
  3  4  1  0  0  0  0
  5  3  1  0  0  0  0
  5 28  1  1  0  0  0
  6  5  1  0  0  0  0
  7  1  1  0  0  0  0
  7  6  2  0  0  0  0
  8  9  2  0  0  0  0
  8  1  1  0  0  0  0
 10 16  1  0  0  0  0
 10  9  1  0  0  0  0
 11 10  2  0  0  0  0
 12 13  2  0  0  0  0
 12 11  1  0  0  0  0
 13 15  1  0  0  0  0
 14 13  1  0  0  0  0
 15 16  2  0  0  0  0
 17 18  1  0  0  0  0
 19 17  1  0  0  0  0
 20  7  1  0  0  0  0
 21 20  1  0  0  0  0
 22 21  2  0  0  0  0
 23 22  1  0  0  0  0
 24 23  2  0  0  0  0
 24 26  1  0  0  0  0
 25 24  1  0  0  0  0
 26 27  2  0  0  0  0
 27 21  1  0  0  0  0
 28 30  1  0  0  0  0
 29 28  1  0  0  0  0
M  END
>  <REMARK>
 VINA RESULT:      -7.4      3.387      4.962
  6 active torsions:
  status: ('A' for Active; 'I' for Inactive)
    1  A    between atoms: C1_1  and  C8_10 
    2  A    between atoms: N1_2  and  C2_3 
    3  A    between atoms: C9_11  and  N2_12 
    4  A    between atoms: C10_17  and  N4_18 
    5  A    between atoms: C11_22  and  N6_23 
    6  A    between atoms: N6_23  and  C12_24 

>  <TORSDO>
F 6

$$$$
../pdbqt/decoy.vina_out.26.pdbqt
 OpenBabel06052021513D

 30 32  0  0  1  0  0  0  0  0999 V2000
  -20.8420   64.3050   25.9690 C   0  0  0  0  0  0  0  0  0  0  0  0
  -20.7880   63.4620   27.1070 C   0  0  0  0  0  0  0  0  0  0  0  0
  -19.5810   63.1360   27.6480 N   0  0  0  0  0  0  0  0  0  0  0  0
  -19.5460   62.5150   28.4880 H   0  0  0  0  0  0  0  0  0  0  0  0
  -18.4210   63.6140   27.1290 C   0  0  1  0  0  0  0  0  0  0  0  0
  -18.4500   64.4300   26.0480 N   0  0  0  0  0  0  0  0  0  0  0  0
  -19.6180   64.7970   25.4560 C   0  0  0  0  0  0  0  0  0  0  0  0
  -22.1410   64.6180   25.3190 C   0  0  0  0  0  0  0  0  0  0  0  0
  -23.1180   65.1390   26.0000 N   0  0  0  0  0  0  0  0  0  0  0  0
  -24.4230   65.4800   25.5020 C   0  0  0  0  0  0  0  0  0  0  0  0
  -24.6170   66.3190   24.3840 C   0  0  0  0  0  0  0  0  0  0  0  0
  -25.9120   66.6060   23.9370 C   0  0  0  0  0  0  0  0  0  0  0  0
  -27.0190   66.0570   24.5900 C   0  0  0  0  0  0  0  0  0  0  0  0
  -28.7840   66.4510   23.9760 Br  0  0  0  0  0  0  0  0  0  0  0  0
  -26.8320   65.2150   25.6890 C   0  0  0  0  0  0  0  0  0  0  0  0
  -25.5400   64.9240   26.1380 C   0  0  0  0  0  0  0  0  0  0  0  0
  -21.9810   62.9700   27.7340 N   0  0  0  0  0  0  0  0  0  0  0  0
  -22.4560   62.1190   27.3580 H   0  0  0  0  0  0  0  0  0  0  0  0
  -22.3550   63.3670   28.6230 H   0  0  0  0  0  0  0  0  0  0  0  0
  -19.6070   65.5420   24.3860 N   0  0  0  0  0  0  0  0  0  0  0  0
  -18.7760   65.3860   23.2220 C   0  0  0  0  0  0  0  0  0  0  0  0
  -17.6460   66.2020   23.0910 C   0  0  0  0  0  0  0  0  0  0  0  0
  -16.7910   66.0590   21.9940 C   0  0  0  0  0  0  0  0  0  0  0  0
  -17.0490   65.0820   21.0270 C   0  0  0  0  0  0  0  0  0  0  0  0
  -15.8800   64.8840   19.5310 Br  0  0  0  0  0  0  0  0  0  0  0  0
  -18.1570   64.2400   21.1660 C   0  0  0  0  0  0  0  0  0  0  0  0
  -19.0130   64.3820   22.2630 C   0  0  0  0  0  0  0  0  0  0  0  0
  -17.1680   63.2620   27.7160 N   0  0  0  0  0  0  0  0  0  0  0  0
  -16.4340   63.9850   27.8820 H   0  0  0  0  0  0  0  0  0  0  0  0
  -16.9730   62.2720   27.9850 H   0  0  0  0  0  0  0  0  0  0  0  0
  1  2  2  0  0  0  0
  2  3  1  0  0  0  0
  2 17  1  0  0  0  0
  3  4  1  0  0  0  0
  5  3  1  0  0  0  0
  5 28  1  1  0  0  0
  6  5  1  0  0  0  0
  7  1  1  0  0  0  0
  7  6  2  0  0  0  0
  8  1  1  0  0  0  0
  8  9  2  0  0  0  0
 10  9  1  0  0  0  0
 10 16  2  0  0  0  0
 11 10  1  0  0  0  0
 12 11  2  0  0  0  0
 12 13  1  0  0  0  0
 13 15  2  0  0  0  0
 14 13  1  0  0  0  0
 15 16  1  0  0  0  0
 17 19  1  0  0  0  0
 18 17  1  0  0  0  0
 20  7  1  0  0  0  0
 21 20  1  0  0  0  0
 22 21  1  0  0  0  0
 23 22  2  0  0  0  0
 24 26  2  0  0  0  0
 24 23  1  0  0  0  0
 25 24  1  0  0  0  0
 26 27  1  0  0  0  0
 27 21  2  0  0  0  0
 28 29  1  0  0  0  0
 28 30  1  0  0  0  0
M  END
>  <REMARK>
 VINA RESULT:      -7.4      3.589      5.604
  6 active torsions:
  status: ('A' for Active; 'I' for Inactive)
    1  A    between atoms: C1_1  and  C8_10 
    2  A    between atoms: N1_2  and  C2_3 
    3  A    between atoms: C9_11  and  N2_12 
    4  A    between atoms: C10_17  and  N4_18 
    5  A    between atoms: C11_22  and  N6_23 
    6  A    between atoms: N6_23  and  C12_24 

>  <TORSDO>
F 6

$$$$
../pdbqt/decoy.vina_out.26.pdbqt
 OpenBabel06052021513D

 30 32  0  0  1  0  0  0  0  0999 V2000
  -21.7120   64.5100   26.9020 C   0  0  0  0  0  0  0  0  0  0  0  0
  -20.9180   63.3420   27.0090 C   0  0  0  0  0  0  0  0  0  0  0  0
  -20.7220   62.5580   25.9110 N   0  0  0  0  0  0  0  0  0  0  0  0
  -20.1330   61.6980   25.9940 H   0  0  0  0  0  0  0  0  0  0  0  0
  -21.2590   62.8810   24.7070 C   0  0  2  0  0  0  0  0  0  0  0  0
  -22.0120   63.9990   24.5810 N   0  0  0  0  0  0  0  0  0  0  0  0
  -22.2520   64.8260   25.6330 C   0  0  0  0  0  0  0  0  0  0  0  0
  -22.0000   65.3420   28.1000 C   0  0  0  0  0  0  0  0  0  0  0  0
  -21.0480   65.9920   28.7030 N   0  0  0  0  0  0  0  0  0  0  0  0
  -21.1840   66.8210   29.8700 C   0  0  0  0  0  0  0  0  0  0  0  0
  -20.1980   67.7480   30.2670 C   0  0  0  0  0  0  0  0  0  0  0  0
  -20.3920   68.5360   31.4070 C   0  0  0  0  0  0  0  0  0  0  0  0
  -21.5670   68.4160   32.1530 C   0  0  0  0  0  0  0  0  0  0  0  0
  -21.8280   69.4950   33.7070 Br  0  0  0  0  0  0  0  0  0  0  0  0
  -22.5540   67.5100   31.7570 C   0  0  0  0  0  0  0  0  0  0  0  0
  -22.3650   66.7210   30.6180 C   0  0  0  0  0  0  0  0  0  0  0  0
  -20.2780   62.9780   28.2400 N   0  0  0  0  0  0  0  0  0  0  0  0
  -20.5790   63.4210   29.1360 H   0  0  0  0  0  0  0  0  0  0  0  0
  -19.5780   62.2070   28.3040 H   0  0  0  0  0  0  0  0  0  0  0  0
  -23.0240   65.8670   25.4880 N   0  0  0  0  0  0  0  0  0  0  0  0
  -24.4140   65.8780   25.1210 C   0  0  0  0  0  0  0  0  0  0  0  0
  -25.3300   65.2110   25.9440 C   0  0  0  0  0  0  0  0  0  0  0  0
  -26.6960   65.2270   25.6440 C   0  0  0  0  0  0  0  0  0  0  0  0
  -27.1600   65.9290   24.5270 C   0  0  0  0  0  0  0  0  0  0  0  0
  -29.0250   65.9530   24.1200 Br  0  0  0  0  0  0  0  0  0  0  0  0
  -26.2570   66.6250   23.7180 C   0  0  0  0  0  0  0  0  0  0  0  0
  -24.8910   66.6100   24.0160 C   0  0  0  0  0  0  0  0  0  0  0  0
  -21.0350   62.0470   23.5690 N   0  0  0  0  0  0  0  0  0  0  0  0
  -20.1130   62.0470   23.0810 H   0  0  0  0  0  0  0  0  0  0  0  0
  -21.7970   61.4270   23.2140 H   0  0  0  0  0  0  0  0  0  0  0  0
  1  2  2  0  0  0  0
  1  8  1  0  0  0  0
  2 17  1  0  0  0  0
  3  4  1  0  0  0  0
  3  2  1  0  0  0  0
  5 28  1  1  0  0  0
  5  3  1  0  0  0  0
  6  5  1  0  0  0  0
  6  7  2  0  0  0  0
  7  1  1  0  0  0  0
  8  9  2  0  0  0  0
  9 10  1  0  0  0  0
 10 11  2  0  0  0  0
 10 16  1  0  0  0  0
 11 12  1  0  0  0  0
 12 13  2  0  0  0  0
 13 14  1  0  0  0  0
 15 13  1  0  0  0  0
 16 15  2  0  0  0  0
 17 19  1  0  0  0  0
 17 18  1  0  0  0  0
 20  7  1  0  0  0  0
 21 20  1  0  0  0  0
 21 22  2  0  0  0  0
 23 22  1  0  0  0  0
 24 23  2  0  0  0  0
 25 24  1  0  0  0  0
 26 27  2  0  0  0  0
 26 24  1  0  0  0  0
 27 21  1  0  0  0  0
 29 28  1  0  0  0  0
 30 28  1  0  0  0  0
M  END
>  <REMARK>
 VINA RESULT:      -7.3      2.945      6.227
  6 active torsions:
  status: ('A' for Active; 'I' for Inactive)
    1  A    between atoms: C1_1  and  C8_10 
    2  A    between atoms: N1_2  and  C2_3 
    3  A    between atoms: C9_11  and  N2_12 
    4  A    between atoms: C10_17  and  N4_18 
    5  A    between atoms: C11_22  and  N6_23 
    6  A    between atoms: N6_23  and  C12_24 

>  <TORSDO>
F 6

$$$$
../pdbqt/decoy.vina_out.26.pdbqt
 OpenBabel06052021513D

 30 32  0  0  1  0  0  0  0  0999 V2000
  -21.0540   64.3660   26.7130 C   0  0  0  0  0  0  0  0  0  0  0  0
  -20.5900   63.4420   27.6820 C   0  0  0  0  0  0  0  0  0  0  0  0
  -21.3520   63.1790   28.7810 N   0  0  0  0  0  0  0  0  0  0  0  0
  -21.0080   62.4950   29.4930 H   0  0  0  0  0  0  0  0  0  0  0  0
  -22.5600   63.7710   28.9620 C   0  0  2  0  0  0  0  0  0  0  0  0
  -23.0270   64.6490   28.0420 N   0  0  0  0  0  0  0  0  0  0  0  0
  -22.3210   64.9610   26.9240 C   0  0  0  0  0  0  0  0  0  0  0  0
  -20.2100   64.7240   25.5430 C   0  0  0  0  0  0  0  0  0  0  0  0
  -19.6340   63.8010   24.8310 N   0  0  0  0  0  0  0  0  0  0  0  0
  -18.7880   64.0060   23.6860 C   0  0  0  0  0  0  0  0  0  0  0  0
  -19.1770   64.7920   22.5810 C   0  0  0  0  0  0  0  0  0  0  0  0
  -18.3050   64.9650   21.5000 C   0  0  0  0  0  0  0  0  0  0  0  0
  -17.0420   64.3680   21.5130 C   0  0  0  0  0  0  0  0  0  0  0  0
  -15.8550   64.6080   20.0360 Br  0  0  0  0  0  0  0  0  0  0  0  0
  -16.6460   63.6000   22.6110 C   0  0  0  0  0  0  0  0  0  0  0  0
  -17.5130   63.4260   23.6940 C   0  0  0  0  0  0  0  0  0  0  0  0
  -19.3490   62.7420   27.5200 N   0  0  0  0  0  0  0  0  0  0  0  0
  -18.8580   62.7560   26.5980 H   0  0  0  0  0  0  0  0  0  0  0  0
  -18.8500   62.2890   28.3150 H   0  0  0  0  0  0  0  0  0  0  0  0
  -22.7760   65.8490   26.0850 N   0  0  0  0  0  0  0  0  0  0  0  0
  -24.0750   65.8840   25.4700 C   0  0  0  0  0  0  0  0  0  0  0  0
  -25.1390   65.2400   26.1150 C   0  0  0  0  0  0  0  0  0  0  0  0
  -26.4270   65.2790   25.5700 C   0  0  0  0  0  0  0  0  0  0  0  0
  -26.6650   65.9820   24.3850 C   0  0  0  0  0  0  0  0  0  0  0  0
  -28.4240   66.0380   23.6440 Br  0  0  0  0  0  0  0  0  0  0  0  0
  -25.6160   66.6550   23.7510 C   0  0  0  0  0  0  0  0  0  0  0  0
  -24.3280   66.6160   24.2940 C   0  0  0  0  0  0  0  0  0  0  0  0
  -23.3440   63.4750   30.1190 N   0  0  0  0  0  0  0  0  0  0  0  0
  -24.1860   62.8630   30.0510 H   0  0  0  0  0  0  0  0  0  0  0  0
  -23.0800   63.8720   31.0480 H   0  0  0  0  0  0  0  0  0  0  0  0
  1  7  1  0  0  0  0
  1  2  2  0  0  0  0
  2  3  1  0  0  0  0
  3  5  1  0  0  0  0
  3  4  1  0  0  0  0
  5 28  1  1  0  0  0
  6  5  1  0  0  0  0
  7  6  2  0  0  0  0
  8  1  1  0  0  0  0
  9  8  2  0  0  0  0
 10 16  1  0  0  0  0
 10  9  1  0  0  0  0
 11 10  2  0  0  0  0
 12 13  2  0  0  0  0
 12 11  1  0  0  0  0
 13 15  1  0  0  0  0
 14 13  1  0  0  0  0
 15 16  2  0  0  0  0
 17  2  1  0  0  0  0
 17 19  1  0  0  0  0
 18 17  1  0  0  0  0
 20  7  1  0  0  0  0
 21 20  1  0  0  0  0
 21 22  2  0  0  0  0
 23 22  1  0  0  0  0
 24 23  2  0  0  0  0
 25 24  1  0  0  0  0
 26 27  2  0  0  0  0
 26 24  1  0  0  0  0
 27 21  1  0  0  0  0
 28 30  1  0  0  0  0
 29 28  1  0  0  0  0
M  END
>  <REMARK>
 VINA RESULT:      -7.2      3.660      6.602
  6 active torsions:
  status: ('A' for Active; 'I' for Inactive)
    1  A    between atoms: C1_1  and  C8_10 
    2  A    between atoms: N1_2  and  C2_3 
    3  A    between atoms: C9_11  and  N2_12 
    4  A    between atoms: C10_17  and  N4_18 
    5  A    between atoms: C11_22  and  N6_23 
    6  A    between atoms: N6_23  and  C12_24 

>  <TORSDO>
F 6

$$$$
../pdbqt/decoy.vina_out.26.pdbqt
 OpenBabel06052021513D

 30 32  0  0  1  0  0  0  0  0999 V2000
  -20.4610   65.3910   24.2210 C   0  0  0  0  0  0  0  0  0  0  0  0
  -19.8110   64.4880   23.3440 C   0  0  0  0  0  0  0  0  0  0  0  0
  -18.6980   64.8880   22.6680 N   0  0  0  0  0  0  0  0  0  0  0  0
  -18.2200   64.2170   22.0230 H   0  0  0  0  0  0  0  0  0  0  0  0
  -18.1840   66.1340   22.8260 C   0  0  1  0  0  0  0  0  0  0  0  0
  -18.7830   67.0100   23.6680 N   0  0  0  0  0  0  0  0  0  0  0  0
  -19.8970   66.6810   24.3740 C   0  0  0  0  0  0  0  0  0  0  0  0
  -21.7150   65.0020   24.9160 C   0  0  0  0  0  0  0  0  0  0  0  0
  -22.8610   65.4960   24.5470 N   0  0  0  0  0  0  0  0  0  0  0  0
  -24.1430   65.2150   25.1350 C   0  0  0  0  0  0  0  0  0  0  0  0
  -24.3080   64.3260   26.2180 C   0  0  0  0  0  0  0  0  0  0  0  0
  -25.5800   64.1020   26.7560 C   0  0  0  0  0  0  0  0  0  0  0  0
  -26.6930   64.7640   26.2300 C   0  0  0  0  0  0  0  0  0  0  0  0
  -28.4270   64.4550   26.9680 Br  0  0  0  0  0  0  0  0  0  0  0  0
  -26.5330   65.6560   25.1670 C   0  0  0  0  0  0  0  0  0  0  0  0
  -25.2640   65.8850   24.6260 C   0  0  0  0  0  0  0  0  0  0  0  0
  -20.2720   63.1400   23.1760 N   0  0  0  0  0  0  0  0  0  0  0  0
  -19.7860   62.3560   23.6670 H   0  0  0  0  0  0  0  0  0  0  0  0
  -21.1450   62.9040   22.6570 H   0  0  0  0  0  0  0  0  0  0  0  0
  -20.4790   67.5650   25.1360 N   0  0  0  0  0  0  0  0  0  0  0  0
  -20.2060   67.8380   26.5210 C   0  0  0  0  0  0  0  0  0  0  0  0
  -19.0750   68.5970   26.8440 C   0  0  0  0  0  0  0  0  0  0  0  0
  -18.7930   68.9160   28.1760 C   0  0  0  0  0  0  0  0  0  0  0  0
  -19.6530   68.4950   29.1950 C   0  0  0  0  0  0  0  0  0  0  0  0
  -19.2680   68.9350   31.0140 Br  0  0  0  0  0  0  0  0  0  0  0  0
  -20.8020   67.7640   28.8790 C   0  0  0  0  0  0  0  0  0  0  0  0
  -21.0860   67.4440   27.5480 C   0  0  0  0  0  0  0  0  0  0  0  0
  -17.0130   66.5300   22.1100 N   0  0  0  0  0  0  0  0  0  0  0  0
  -16.1490   65.9470   22.1370 H   0  0  0  0  0  0  0  0  0  0  0  0
  -17.0120   67.4120   21.5510 H   0  0  0  0  0  0  0  0  0  0  0  0
  1  7  1  0  0  0  0
  1  8  1  0  0  0  0
  2  1  2  0  0  0  0
  3  5  1  0  0  0  0
  3  2  1  0  0  0  0
  4  3  1  0  0  0  0
  5 28  1  1  0  0  0
  5  6  1  0  0  0  0
  6  7  2  0  0  0  0
  7 20  1  0  0  0  0
  9  8  2  0  0  0  0
  9 10  1  0  0  0  0
 10 11  1  0  0  0  0
 11 12  2  0  0  0  0
 13 12  1  0  0  0  0
 13 14  1  0  0  0  0
 15 13  2  0  0  0  0
 16 10  2  0  0  0  0
 16 15  1  0  0  0  0
 17  2  1  0  0  0  0
 17 18  1  0  0  0  0
 19 17  1  0  0  0  0
 20 21  1  0  0  0  0
 21 22  2  0  0  0  0
 21 27  1  0  0  0  0
 22 23  1  0  0  0  0
 23 24  2  0  0  0  0
 24 25  1  0  0  0  0
 26 24  1  0  0  0  0
 27 26  2  0  0  0  0
 28 29  1  0  0  0  0
 30 28  1  0  0  0  0
M  END
>  <REMARK>
 VINA RESULT:      -7.2      2.979      4.272
  6 active torsions:
  status: ('A' for Active; 'I' for Inactive)
    1  A    between atoms: C1_1  and  C8_10 
    2  A    between atoms: N1_2  and  C2_3 
    3  A    between atoms: C9_11  and  N2_12 
    4  A    between atoms: C10_17  and  N4_18 
    5  A    between atoms: C11_22  and  N6_23 
    6  A    between atoms: N6_23  and  C12_24 

>  <TORSDO>
F 6

$$$$
../pdbqt/decoy.vina_out.26.pdbqt
 OpenBabel06052021513D

 30 32  0  0  1  0  0  0  0  0999 V2000
  -19.7920   62.7480   25.0100 C   0  0  0  0  0  0  0  0  0  0  0  0
  -19.3500   62.1890   23.7860 C   0  0  0  0  0  0  0  0  0  0  0  0
  -18.0480   62.3340   23.4100 N   0  0  0  0  0  0  0  0  0  0  0  0
  -17.7260   61.9170   22.5070 H   0  0  0  0  0  0  0  0  0  0  0  0
  -17.1550   62.9920   24.1930 C   0  0  2  0  0  0  0  0  0  0  0  0
  -17.5550   63.5260   25.3720 N   0  0  0  0  0  0  0  0  0  0  0  0
  -18.8370   63.4210   25.8100 C   0  0  0  0  0  0  0  0  0  0  0  0
  -21.2210   62.6650   25.4090 C   0  0  0  0  0  0  0  0  0  0  0  0
  -21.9190   63.7430   25.6170 N   0  0  0  0  0  0  0  0  0  0  0  0
  -23.2990   63.8060   26.0140 C   0  0  0  0  0  0  0  0  0  0  0  0
  -23.8680   62.9090   26.9430 C   0  0  0  0  0  0  0  0  0  0  0  0
  -25.2160   63.0280   27.3000 C   0  0  0  0  0  0  0  0  0  0  0  0
  -26.0040   64.0400   26.7450 C   0  0  0  0  0  0  0  0  0  0  0  0
  -27.8430   64.1980   27.2360 Br  0  0  0  0  0  0  0  0  0  0  0  0
  -25.4420   64.9400   25.8350 C   0  0  0  0  0  0  0  0  0  0  0  0
  -24.0960   64.8260   25.4770 C   0  0  0  0  0  0  0  0  0  0  0  0
  -20.2310   61.4340   22.9430 N   0  0  0  0  0  0  0  0  0  0  0  0
  -19.8680   60.9920   22.0690 H   0  0  0  0  0  0  0  0  0  0  0  0
  -21.2150   61.2160   23.2090 H   0  0  0  0  0  0  0  0  0  0  0  0
  -19.2000   63.9910   26.9250 N   0  0  0  0  0  0  0  0  0  0  0  0
  -19.3140   63.3790   28.2210 C   0  0  0  0  0  0  0  0  0  0  0  0
  -18.1410   63.0360   28.9060 C   0  0  0  0  0  0  0  0  0  0  0  0
  -18.2050   62.4710   30.1840 C   0  0  0  0  0  0  0  0  0  0  0  0
  -19.4450   62.2650   30.7970 C   0  0  0  0  0  0  0  0  0  0  0  0
  -19.5320   61.4980   32.5440 Br  0  0  0  0  0  0  0  0  0  0  0  0
  -20.6190   62.6350   30.1350 C   0  0  0  0  0  0  0  0  0  0  0  0
  -20.5580   63.1990   28.8570 C   0  0  0  0  0  0  0  0  0  0  0  0
  -15.7950   63.1270   23.7800 N   0  0  0  0  0  0  0  0  0  0  0  0
  -15.4550   62.6730   22.9050 H   0  0  0  0  0  0  0  0  0  0  0  0
  -15.1240   63.6840   24.3550 H   0  0  0  0  0  0  0  0  0  0  0  0
  1  8  1  0  0  0  0
  1  7  1  0  0  0  0
  2  1  2  0  0  0  0
  3  2  1  0  0  0  0
  3  5  1  0  0  0  0
  4  3  1  0  0  0  0
  5 28  1  6  0  0  0
  5  6  1  0  0  0  0
  6  7  2  0  0  0  0
  7 20  1  0  0  0  0
  8  9  2  0  0  0  0
  9 10  1  0  0  0  0
 10 11  2  0  0  0  0
 11 12  1  0  0  0  0
 13 14  1  0  0  0  0
 13 12  2  0  0  0  0
 15 13  1  0  0  0  0
 16 15  2  0  0  0  0
 16 10  1  0  0  0  0
 17 19  1  0  0  0  0
 17  2  1  0  0  0  0
 18 17  1  0  0  0  0
 20 21  1  0  0  0  0
 21 27  2  0  0  0  0
 21 22  1  0  0  0  0
 22 23  2  0  0  0  0
 23 24  1  0  0  0  0
 24 25  1  0  0  0  0
 26 24  2  0  0  0  0
 27 26  1  0  0  0  0
 28 30  1  0  0  0  0
 29 28  1  0  0  0  0
M  END
>  <REMARK>
 VINA RESULT:      -7.2      3.111      4.086
  6 active torsions:
  status: ('A' for Active; 'I' for Inactive)
    1  A    between atoms: C1_1  and  C8_10 
    2  A    between atoms: N1_2  and  C2_3 
    3  A    between atoms: C9_11  and  N2_12 
    4  A    between atoms: C10_17  and  N4_18 
    5  A    between atoms: C11_22  and  N6_23 
    6  A    between atoms: N6_23  and  C12_24 

>  <TORSDO>
F 6

$$$$
