../pdbqt/decoy.vina_out.69.pdbqt
 OpenBabel06052021513D

 14 16  0  0  0  0  0  0  0  0999 V2000
  -30.2290   65.1610   24.0380 Cl  0  0  0  0  0  0  0  0  0  0  0  0
  -28.5820   65.7360   23.8530 C   0  0  0  0  0  0  0  0  0  0  0  0
  -28.1620   66.5220   22.8370 N   0  0  0  0  0  0  0  0  0  0  0  0
  -26.8660   66.7560   23.0240 N   0  0  0  0  0  0  0  0  0  0  0  0
  -26.5230   66.1060   24.1540 C   0  0  0  0  0  0  0  0  0  0  0  0
  -25.2640   66.0560   24.7570 C   0  0  0  0  0  0  0  0  0  0  0  0
  -24.1460   66.7140   24.2240 C   0  0  0  0  0  0  0  0  0  0  0  0
  -22.9120   66.6250   24.8760 C   0  0  0  0  0  0  0  0  0  0  0  0
  -22.7880   65.8830   26.0550 C   0  0  0  0  0  0  0  0  0  0  0  0
  -23.8970   65.2220   26.5940 C   0  0  0  0  0  0  0  0  0  0  0  0
  -25.1430   65.3000   25.9550 C   0  0  0  0  0  0  0  0  0  0  0  0
  -26.2720   64.6370   26.4890 C   0  0  0  0  0  0  0  0  0  0  0  0
  -27.5070   64.7310   25.8300 C   0  0  0  0  0  0  0  0  0  0  0  0
  -27.5690   65.4640   24.6910 N   0  0  0  0  0  0  0  0  0  0  0  0
  2  1  1  0  0  0  0
  2 14  1  0  0  0  0
  3  4  1  0  0  0  0
  3  2  2  0  0  0  0
  4  5  2  0  0  0  0
  5 14  1  0  0  0  0
  5  6  1  0  0  0  0
  6 11  1  0  0  0  0
  7  6  2  0  0  0  0
  7  8  1  0  0  0  0
  8  9  2  0  0  0  0
  9 10  1  0  0  0  0
 11 12  1  0  0  0  0
 11 10  2  0  0  0  0
 13 12  2  0  0  0  0
 14 13  1  0  0  0  0
M  END
>  <MODEL>
1

>  <REMARK>
 VINA RESULT:      -8.0      0.000      0.000
  0 active torsions:
  status: ('A' for Active; 'I' for Inactive)

>  <TORSDO>
F 0

$$$$
../pdbqt/decoy.vina_out.69.pdbqt
 OpenBabel06052021513D

 14 16  0  0  0  0  0  0  0  0999 V2000
  -25.2210   61.6850   28.8530 Cl  0  0  0  0  0  0  0  0  0  0  0  0
  -26.2390   62.7450   27.8960 C   0  0  0  0  0  0  0  0  0  0  0  0
  -27.5880   62.7730   27.9720 N   0  0  0  0  0  0  0  0  0  0  0  0
  -28.0160   63.6910   27.1100 N   0  0  0  0  0  0  0  0  0  0  0  0
  -26.9150   64.2050   26.5260 C   0  0  0  0  0  0  0  0  0  0  0  0
  -26.8590   65.2020   25.5490 C   0  0  0  0  0  0  0  0  0  0  0  0
  -28.0070   65.8190   25.0340 C   0  0  0  0  0  0  0  0  0  0  0  0
  -27.8830   66.8120   24.0570 C   0  0  0  0  0  0  0  0  0  0  0  0
  -26.6200   67.1920   23.5920 C   0  0  0  0  0  0  0  0  0  0  0  0
  -25.4670   66.5810   24.1000 C   0  0  0  0  0  0  0  0  0  0  0  0
  -25.5710   65.5840   25.0810 C   0  0  0  0  0  0  0  0  0  0  0  0
  -24.4160   64.9590   25.6020 C   0  0  0  0  0  0  0  0  0  0  0  0
  -24.5480   63.9640   26.5820 C   0  0  0  0  0  0  0  0  0  0  0  0
  -25.7970   63.6360   26.9950 N   0  0  0  0  0  0  0  0  0  0  0  0
  2  3  2  0  0  0  0
  2  1  1  0  0  0  0
  4  3  1  0  0  0  0
  5 14  1  0  0  0  0
  5  4  2  0  0  0  0
  6  5  1  0  0  0  0
  7  6  2  0  0  0  0
  8  7  1  0  0  0  0
  9  8  2  0  0  0  0
  9 10  1  0  0  0  0
 10 11  2  0  0  0  0
 11  6  1  0  0  0  0
 11 12  1  0  0  0  0
 12 13  2  0  0  0  0
 13 14  1  0  0  0  0
 14  2  1  0  0  0  0
M  END
>  <REMARK>
 VINA RESULT:      -7.9      3.167      4.427
  0 active torsions:
  status: ('A' for Active; 'I' for Inactive)

>  <TORSDO>
F 0

$$$$
../pdbqt/decoy.vina_out.69.pdbqt
 OpenBabel06052021513D

 14 16  0  0  0  0  0  0  0  0999 V2000
  -28.6280   67.0020   24.0490 Cl  0  0  0  0  0  0  0  0  0  0  0  0
  -27.2640   66.1300   24.7250 C   0  0  0  0  0  0  0  0  0  0  0  0
  -25.9800   66.3290   24.3560 N   0  0  0  0  0  0  0  0  0  0  0  0
  -25.2270   65.4990   25.0730 N   0  0  0  0  0  0  0  0  0  0  0  0
  -26.0730   64.8100   25.8660 C   0  0  0  0  0  0  0  0  0  0  0  0
  -25.7480   63.8210   26.7970 C   0  0  0  0  0  0  0  0  0  0  0  0
  -24.4280   63.4050   27.0280 C   0  0  0  0  0  0  0  0  0  0  0  0
  -24.1690   62.4100   27.9740 C   0  0  0  0  0  0  0  0  0  0  0  0
  -25.2190   61.8260   28.6910 C   0  0  0  0  0  0  0  0  0  0  0  0
  -26.5390   62.2330   28.4680 C   0  0  0  0  0  0  0  0  0  0  0  0
  -26.8190   63.2310   27.5220 C   0  0  0  0  0  0  0  0  0  0  0  0
  -28.1480   63.6510   27.2870 C   0  0  0  0  0  0  0  0  0  0  0  0
  -28.4000   64.6510   26.3360 C   0  0  0  0  0  0  0  0  0  0  0  0
  -27.3440   65.1820   25.6700 N   0  0  0  0  0  0  0  0  0  0  0  0
  1  2  1  0  0  0  0
  2 14  1  0  0  0  0
  3  2  2  0  0  0  0
  3  4  1  0  0  0  0
  4  5  2  0  0  0  0
  5  6  1  0  0  0  0
  6  7  2  0  0  0  0
  6 11  1  0  0  0  0
  7  8  1  0  0  0  0
  8  9  2  0  0  0  0
 10  9  1  0  0  0  0
 11 10  2  0  0  0  0
 12 11  1  0  0  0  0
 13 12  2  0  0  0  0
 14  5  1  0  0  0  0
 14 13  1  0  0  0  0
M  END
>  <REMARK>
 VINA RESULT:      -7.7      2.143      3.293
  0 active torsions:
  status: ('A' for Active; 'I' for Inactive)

>  <TORSDO>
F 0

$$$$
../pdbqt/decoy.vina_out.69.pdbqt
 OpenBabel06052021513D

 14 16  0  0  0  0  0  0  0  0999 V2000
  -27.8740   62.4440   28.8750 Cl  0  0  0  0  0  0  0  0  0  0  0  0
  -26.8650   63.4830   27.8840 C   0  0  0  0  0  0  0  0  0  0  0  0
  -25.5760   63.7780   28.1640 N   0  0  0  0  0  0  0  0  0  0  0  0
  -25.1350   64.5840   27.2030 N   0  0  0  0  0  0  0  0  0  0  0  0
  -26.1680   64.7630   26.3550 C   0  0  0  0  0  0  0  0  0  0  0  0
  -26.1860   65.5340   25.1900 C   0  0  0  0  0  0  0  0  0  0  0  0
  -25.0680   66.2520   24.7420 C   0  0  0  0  0  0  0  0  0  0  0  0
  -25.1510   67.0040   23.5660 C   0  0  0  0  0  0  0  0  0  0  0  0
  -26.3440   67.0440   22.8360 C   0  0  0  0  0  0  0  0  0  0  0  0
  -27.4650   66.3320   23.2750 C   0  0  0  0  0  0  0  0  0  0  0  0
  -27.4010   65.5710   24.4520 C   0  0  0  0  0  0  0  0  0  0  0  0
  -28.5260   64.8470   24.9070 C   0  0  0  0  0  0  0  0  0  0  0  0
  -28.4360   64.0930   26.0870 C   0  0  0  0  0  0  0  0  0  0  0  0
  -27.2550   64.0910   26.7540 N   0  0  0  0  0  0  0  0  0  0  0  0
  2  3  2  0  0  0  0
  2  1  1  0  0  0  0
  4  3  1  0  0  0  0
  5 14  1  0  0  0  0
  5  4  2  0  0  0  0
  6  5  1  0  0  0  0
  7  6  1  0  0  0  0
  8  7  2  0  0  0  0
  9 10  2  0  0  0  0
  9  8  1  0  0  0  0
 10 11  1  0  0  0  0
 11 12  1  0  0  0  0
 11  6  2  0  0  0  0
 12 13  2  0  0  0  0
 13 14  1  0  0  0  0
 14  2  1  0  0  0  0
M  END
>  <REMARK>
 VINA RESULT:      -7.7      2.807      3.934
  0 active torsions:
  status: ('A' for Active; 'I' for Inactive)

>  <TORSDO>
F 0

$$$$
../pdbqt/decoy.vina_out.69.pdbqt
 OpenBabel06052021513D

 14 16  0  0  0  0  0  0  0  0999 V2000
  -21.8120   67.0110   24.8350 Cl  0  0  0  0  0  0  0  0  0  0  0  0
  -23.2760   66.2130   25.3810 C   0  0  0  0  0  0  0  0  0  0  0  0
  -23.3440   65.4170   26.4700 N   0  0  0  0  0  0  0  0  0  0  0  0
  -24.6000   64.9920   26.5750 N   0  0  0  0  0  0  0  0  0  0  0  0
  -25.2730   65.5420   25.5440 C   0  0  0  0  0  0  0  0  0  0  0  0
  -26.6260   65.3870   25.2330 C   0  0  0  0  0  0  0  0  0  0  0  0
  -27.4910   64.5960   26.0030 C   0  0  0  0  0  0  0  0  0  0  0  0
  -28.8360   64.4820   25.6380 C   0  0  0  0  0  0  0  0  0  0  0  0
  -29.3220   65.1520   24.5110 C   0  0  0  0  0  0  0  0  0  0  0  0
  -28.4670   65.9440   23.7360 C   0  0  0  0  0  0  0  0  0  0  0  0
  -27.1140   66.0700   24.0860 C   0  0  0  0  0  0  0  0  0  0  0  0
  -26.2390   66.8660   23.3120 C   0  0  0  0  0  0  0  0  0  0  0  0
  -24.8910   66.9770   23.6830 C   0  0  0  0  0  0  0  0  0  0  0  0
  -24.4750   66.3050   24.7860 N   0  0  0  0  0  0  0  0  0  0  0  0
  1  2  1  0  0  0  0
  2  3  2  0  0  0  0
  3  4  1  0  0  0  0
  5  4  2  0  0  0  0
  6  5  1  0  0  0  0
  6  7  2  0  0  0  0
  8  7  1  0  0  0  0
  9  8  2  0  0  0  0
 10 11  2  0  0  0  0
 10  9  1  0  0  0  0
 11  6  1  0  0  0  0
 12 13  2  0  0  0  0
 12 11  1  0  0  0  0
 13 14  1  0  0  0  0
 14  2  1  0  0  0  0
 14  5  1  0  0  0  0
M  END
>  <REMARK>
 VINA RESULT:      -7.6      2.998      5.033
  0 active torsions:
  status: ('A' for Active; 'I' for Inactive)

>  <TORSDO>
F 0

$$$$
../pdbqt/decoy.vina_out.69.pdbqt
 OpenBabel06052021513D

 14 16  0  0  0  0  0  0  0  0999 V2000
  -21.9680   65.3520   27.1220 Cl  0  0  0  0  0  0  0  0  0  0  0  0
  -23.2620   65.7890   26.0220 C   0  0  0  0  0  0  0  0  0  0  0  0
  -23.1080   66.6050   24.9560 N   0  0  0  0  0  0  0  0  0  0  0  0
  -24.2910   66.7070   24.3580 N   0  0  0  0  0  0  0  0  0  0  0  0
  -25.1450   65.9490   25.0750 C   0  0  0  0  0  0  0  0  0  0  0  0
  -26.5050   65.7430   24.8360 C   0  0  0  0  0  0  0  0  0  0  0  0
  -27.1800   66.3360   23.7590 C   0  0  0  0  0  0  0  0  0  0  0  0
  -28.5440   66.0900   23.5740 C   0  0  0  0  0  0  0  0  0  0  0  0
  -29.2370   65.2550   24.4560 C   0  0  0  0  0  0  0  0  0  0  0  0
  -28.5730   64.6590   25.5340 C   0  0  0  0  0  0  0  0  0  0  0  0
  -27.2050   64.8940   25.7360 C   0  0  0  0  0  0  0  0  0  0  0  0
  -26.5220   64.2980   26.8210 C   0  0  0  0  0  0  0  0  0  0  0  0
  -25.1540   64.5500   27.0010 C   0  0  0  0  0  0  0  0  0  0  0  0
  -24.5320   65.3670   26.1140 N   0  0  0  0  0  0  0  0  0  0  0  0
  2 14  1  0  0  0  0
  2  1  1  0  0  0  0
  3  2  2  0  0  0  0
  4  3  1  0  0  0  0
  4  5  2  0  0  0  0
  5 14  1  0  0  0  0
  6  5  1  0  0  0  0
  6 11  2  0  0  0  0
  7  6  1  0  0  0  0
  8  7  2  0  0  0  0
  8  9  1  0  0  0  0
  9 10  2  0  0  0  0
 10 11  1  0  0  0  0
 11 12  1  0  0  0  0
 12 13  2  0  0  0  0
 14 13  1  0  0  0  0
M  END
>  <REMARK>
 VINA RESULT:      -7.6      2.965      4.534
  0 active torsions:
  status: ('A' for Active; 'I' for Inactive)

>  <TORSDO>
F 0

$$$$
../pdbqt/decoy.vina_out.69.pdbqt
 OpenBabel06052021513D

 14 16  0  0  0  0  0  0  0  0999 V2000
  -21.6220   64.3650   26.7610 Cl  0  0  0  0  0  0  0  0  0  0  0  0
  -23.3750   64.3840   26.6770 C   0  0  0  0  0  0  0  0  0  0  0  0
  -24.1800   63.6450   27.4710 N   0  0  0  0  0  0  0  0  0  0  0  0
  -25.4360   63.9150   27.1260 N   0  0  0  0  0  0  0  0  0  0  0  0
  -25.3680   64.8170   26.1260 C   0  0  0  0  0  0  0  0  0  0  0  0
  -26.4330   65.4030   25.4370 C   0  0  0  0  0  0  0  0  0  0  0  0
  -27.7730   65.1030   25.7230 C   0  0  0  0  0  0  0  0  0  0  0  0
  -28.7930   65.7240   24.9960 C   0  0  0  0  0  0  0  0  0  0  0  0
  -28.4840   66.6430   23.9880 C   0  0  0  0  0  0  0  0  0  0  0  0
  -27.1500   66.9480   23.6950 C   0  0  0  0  0  0  0  0  0  0  0  0
  -26.1130   66.3350   24.4130 C   0  0  0  0  0  0  0  0  0  0  0  0
  -24.7610   66.6350   24.1280 C   0  0  0  0  0  0  0  0  0  0  0  0
  -23.7420   66.0080   24.8600 C   0  0  0  0  0  0  0  0  0  0  0  0
  -24.1000   65.1270   25.8270 N   0  0  0  0  0  0  0  0  0  0  0  0
  2  1  1  0  0  0  0
  2  3  2  0  0  0  0
  4  3  1  0  0  0  0
  5  4  2  0  0  0  0
  6  7  1  0  0  0  0
  6  5  1  0  0  0  0
  8  7  2  0  0  0  0
  9  8  1  0  0  0  0
 10  9  2  0  0  0  0
 10 11  1  0  0  0  0
 11  6  2  0  0  0  0
 12 11  1  0  0  0  0
 12 13  2  0  0  0  0
 13 14  1  0  0  0  0
 14  5  1  0  0  0  0
 14  2  1  0  0  0  0
M  END
>  <REMARK>
 VINA RESULT:      -7.0      3.261      5.070
  0 active torsions:
  status: ('A' for Active; 'I' for Inactive)

>  <TORSDO>
F 0

$$$$
../pdbqt/decoy.vina_out.69.pdbqt
 OpenBabel06052021513D

 14 16  0  0  0  0  0  0  0  0999 V2000
  -28.1340   62.8290   28.9040 Cl  0  0  0  0  0  0  0  0  0  0  0  0
  -28.0070   63.8670   27.4950 C   0  0  0  0  0  0  0  0  0  0  0  0
  -29.0630   64.2750   26.7570 N   0  0  0  0  0  0  0  0  0  0  0  0
  -28.5910   65.0430   25.7790 N   0  0  0  0  0  0  0  0  0  0  0  0
  -27.2530   65.0860   25.9430 C   0  0  0  0  0  0  0  0  0  0  0  0
  -26.3230   65.7700   25.1570 C   0  0  0  0  0  0  0  0  0  0  0  0
  -26.6940   66.5350   24.0410 C   0  0  0  0  0  0  0  0  0  0  0  0
  -25.7130   67.1960   23.2950 C   0  0  0  0  0  0  0  0  0  0  0  0
  -24.3650   67.0980   23.6560 C   0  0  0  0  0  0  0  0  0  0  0  0
  -23.9850   66.3370   24.7680 C   0  0  0  0  0  0  0  0  0  0  0  0
  -24.9540   65.6670   25.5290 C   0  0  0  0  0  0  0  0  0  0  0  0
  -24.5840   64.8950   26.6530 C   0  0  0  0  0  0  0  0  0  0  0  0
  -25.5730   64.2350   27.3970 C   0  0  0  0  0  0  0  0  0  0  0  0
  -26.8640   64.3650   27.0020 N   0  0  0  0  0  0  0  0  0  0  0  0
  2  1  1  0  0  0  0
  3  2  2  0  0  0  0
  4  5  2  0  0  0  0
  4  3  1  0  0  0  0
  5 14  1  0  0  0  0
  6 11  1  0  0  0  0
  6  5  1  0  0  0  0
  7  6  2  0  0  0  0
  8  9  2  0  0  0  0
  8  7  1  0  0  0  0
  9 10  1  0  0  0  0
 10 11  2  0  0  0  0
 11 12  1  0  0  0  0
 12 13  2  0  0  0  0
 14 13  1  0  0  0  0
 14  2  1  0  0  0  0
M  END
>  <REMARK>
 VINA RESULT:      -6.9      2.289      3.160
  0 active torsions:
  status: ('A' for Active; 'I' for Inactive)

>  <TORSDO>
F 0

$$$$
../pdbqt/decoy.vina_out.69.pdbqt
 OpenBabel06052021513D

 14 16  0  0  0  0  0  0  0  0999 V2000
  -28.8110   63.0010   29.0070 Cl  0  0  0  0  0  0  0  0  0  0  0  0
  -27.1550   62.6860   28.5200 C   0  0  0  0  0  0  0  0  0  0  0  0
  -26.4060   61.6680   28.9970 N   0  0  0  0  0  0  0  0  0  0  0  0
  -25.2150   61.7410   28.4080 N   0  0  0  0  0  0  0  0  0  0  0  0
  -25.2660   62.8050   27.5820 C   0  0  0  0  0  0  0  0  0  0  0  0
  -24.2520   63.2830   26.7490 C   0  0  0  0  0  0  0  0  0  0  0  0
  -22.9900   62.6760   26.6720 C   0  0  0  0  0  0  0  0  0  0  0  0
  -22.0170   63.2030   25.8170 C   0  0  0  0  0  0  0  0  0  0  0  0
  -22.2960   64.3320   25.0400 C   0  0  0  0  0  0  0  0  0  0  0  0
  -23.5520   64.9460   25.1110 C   0  0  0  0  0  0  0  0  0  0  0  0
  -24.5410   64.4320   25.9620 C   0  0  0  0  0  0  0  0  0  0  0  0
  -25.8130   65.0410   26.0430 C   0  0  0  0  0  0  0  0  0  0  0  0
  -26.7850   64.5070   26.9020 C   0  0  0  0  0  0  0  0  0  0  0  0
  -26.4600   63.4110   27.6320 N   0  0  0  0  0  0  0  0  0  0  0  0
  2  3  2  0  0  0  0
  2  1  1  0  0  0  0
  4  3  1  0  0  0  0
  5 14  1  0  0  0  0
  5  4  2  0  0  0  0
  6  5  1  0  0  0  0
  7  6  1  0  0  0  0
  8  7  2  0  0  0  0
  9 10  2  0  0  0  0
  9  8  1  0  0  0  0
 10 11  1  0  0  0  0
 11 12  1  0  0  0  0
 11  6  2  0  0  0  0
 12 13  2  0  0  0  0
 13 14  1  0  0  0  0
 14  2  1  0  0  0  0
M  END
>  <REMARK>
 VINA RESULT:      -6.6      3.321      4.500
  0 active torsions:
  status: ('A' for Active; 'I' for Inactive)

>  <TORSDO>
F 0

$$$$
