../pdbqt/decoy.vina_out.21.pdbqt
 OpenBabel06052021513D

 26 33  0  0  1  0  0  0  0  0999 V2000
  -19.1520   64.2600   26.6190 C   0  0  0  0  0  0  0  0  0  0  0  0
  -18.2870   64.7700   25.4700 C   0  0  0  0  0  0  0  0  0  0  0  0
  -18.5030   63.9880   24.3110 O   0  0  0  0  0  0  0  0  0  0  0  0
  -18.8160   64.8040   23.1950 C   0  0  1  0  0  0  0  0  0  0  0  0
  -18.3180   66.2590   23.3760 C   0  0  0  0  0  0  0  0  0  0  0  0
  -17.4090   66.4720   22.1470 C   0  0  2  0  0  0  0  0  0  0  0  0
  -18.1180   65.6290   21.1110 C   0  0  0  0  0  0  0  0  0  0  0  0
  -16.0900   65.6930   22.3810 C   0  0  1  0  0  0  0  0  0  0  0  0
  -18.0500   64.3520   21.9290 C   0  0  1  0  0  0  0  0  0  0  0  0
  -16.5370   64.2320   22.2700 C   0  0  1  0  0  0  0  0  0  0  0  0
  -15.6770   63.5520   21.2030 C   0  0  2  0  0  0  0  0  0  0  0  0
  -14.7230   64.5510   20.6930 C   0  0  1  0  0  0  0  0  0  0  0  0
  -15.7840   64.0750   19.8990 O   0  0  0  0  0  0  0  0  0  0  0  0
  -15.0190   65.9140   21.3010 C   0  0  0  0  0  0  0  0  0  0  0  0
  -20.3450   63.7160   26.0930 O   0  0  0  0  0  0  0  0  0  0  0  0
  -21.4540   64.5260   26.4460 C   0  0  2  0  0  0  0  0  0  0  0  0
  -22.4360   63.7100   27.3210 C   0  0  0  0  0  0  0  0  0  0  0  0
  -23.7170   63.6660   26.4630 C   0  0  2  0  0  0  0  0  0  0  0  0
  -23.1270   63.5690   25.0760 C   0  0  0  0  0  0  0  0  0  0  0  0
  -24.3570   65.0780   26.4690 C   0  0  1  0  0  0  0  0  0  0  0  0
  -22.3180   64.8460   25.2010 C   0  0  1  0  0  0  0  0  0  0  0  0
  -23.3730   65.8990   25.6300 C   0  0  1  0  0  0  0  0  0  0  0  0
  -24.1500   66.5530   24.4880 C   0  0  2  0  0  0  0  0  0  0  0  0
  -25.5640   66.1670   24.6320 C   0  0  1  0  0  0  0  0  0  0  0  0
  -24.7700   65.6700   23.5820 O   0  0  0  0  0  0  0  0  0  0  0  0
  -25.7200   65.1640   25.7670 C   0  0  0  0  0  0  0  0  0  0  0  0
  2  1  1  0  0  0  0
  3  2  1  0  0  0  0
  4  5  1  0  0  0  0
  4  3  1  1  0  0  0
  6  7  1  6  0  0  0
  6  8  1  0  0  0  0
  6  5  1  0  0  0  0
  8 14  1  6  0  0  0
  9  7  1  6  0  0  0
  9 10  1  0  0  0  0
  9  4  1  0  0  0  0
 10  8  1  0  0  0  0
 11 10  1  0  0  0  0
 12 11  1  0  0  0  0
 12 14  1  0  0  0  0
 13 12  1  0  0  0  0
 13 11  1  0  0  0  0
 15 16  1  0  0  0  0
 15  1  1  0  0  0  0
 16 17  1  0  0  0  0
 18 20  1  0  0  0  0
 18 17  1  0  0  0  0
 19 21  1  0  0  0  0
 19 18  1  0  0  0  0
 21 22  1  0  0  0  0
 21 16  1  0  0  0  0
 22 20  1  0  0  0  0
 23 24  1  0  0  0  0
 23 22  1  0  0  0  0
 24 26  1  0  0  0  0
 25 23  1  0  0  0  0
 25 24  1  0  0  0  0
 26 20  1  0  0  0  0
M  END
>  <MODEL>
1

>  <REMARK>
 VINA RESULT:      -7.9      0.000      0.000
  5 active torsions:
  status: ('A' for Active; 'I' for Inactive)
    1  A    between atoms: C1_1  and  C2_2 
    2  A    between atoms: C1_1  and  O3_15 
    3  A    between atoms: C2_2  and  O1_3 
    4  A    between atoms: O1_3  and  C3_4 
    5  A    between atoms: O3_15  and  C13_16 

>  <TORSDO>
F 5

$$$$
../pdbqt/decoy.vina_out.21.pdbqt
 OpenBabel06052021513D

 26 33  0  0  1  0  0  0  0  0999 V2000
  -20.5690   63.2730   28.0190 C   0  0  0  0  0  0  0  0  0  0  0  0
  -19.9840   63.0720   26.6240 C   0  0  0  0  0  0  0  0  0  0  0  0
  -18.9360   63.9950   26.3950 O   0  0  0  0  0  0  0  0  0  0  0  0
  -19.0510   64.5920   25.1150 C   0  0  1  0  0  0  0  0  0  0  0  0
  -20.5220   64.6650   24.6340 C   0  0  0  0  0  0  0  0  0  0  0  0
  -20.7270   66.1720   24.3700 C   0  0  2  0  0  0  0  0  0  0  0  0
  -19.3490   66.5740   23.8950 C   0  0  0  0  0  0  0  0  0  0  0  0
  -20.8430   66.8910   25.7380 C   0  0  1  0  0  0  0  0  0  0  0  0
  -18.6430   66.0840   25.1450 C   0  0  1  0  0  0  0  0  0  0  0  0
  -19.4180   66.7960   26.2900 C   0  0  1  0  0  0  0  0  0  0  0  0
  -18.9420   68.2120   26.6210 C   0  0  2  0  0  0  0  0  0  0  0  0
  -20.0410   69.1400   26.3040 C   0  0  1  0  0  0  0  0  0  0  0  0
  -18.8630   69.1050   25.5340 O   0  0  0  0  0  0  0  0  0  0  0  0
  -21.1870   68.3850   25.6450 C   0  0  0  0  0  0  0  0  0  0  0  0
  -21.6390   64.1910   27.9440 O   0  0  0  0  0  0  0  0  0  0  0  0
  -22.7910   63.5630   27.4050 C   0  0  2  0  0  0  0  0  0  0  0  0
  -23.6570   64.6110   26.6650 C   0  0  0  0  0  0  0  0  0  0  0  0
  -24.9730   64.6110   27.4700 C   0  0  2  0  0  0  0  0  0  0  0  0
  -24.4490   64.3980   28.8700 C   0  0  0  0  0  0  0  0  0  0  0  0
  -25.7250   63.2870   27.1750 C   0  0  1  0  0  0  0  0  0  0  0  0
  -23.7420   63.0980   28.5360 C   0  0  1  0  0  0  0  0  0  0  0  0
  -24.8550   62.2410   27.8800 C   0  0  1  0  0  0  0  0  0  0  0  0
  -25.7410   61.4600   28.8500 C   0  0  2  0  0  0  0  0  0  0  0  0
  -27.1100   61.9910   28.7310 C   0  0  1  0  0  0  0  0  0  0  0  0
  -26.3330   62.2130   29.8840 O   0  0  0  0  0  0  0  0  0  0  0  0
  -27.1240   63.1960   27.8000 C   0  0  0  0  0  0  0  0  0  0  0  0
  2  1  1  0  0  0  0
  3  2  1  0  0  0  0
  4  9  1  0  0  0  0
  4  3  1  1  0  0  0
  5  4  1  0  0  0  0
  6  7  1  1  0  0  0
  6  5  1  0  0  0  0
  6  8  1  0  0  0  0
  8 14  1  6  0  0  0
  8 10  1  0  0  0  0
  9  7  1  6  0  0  0
  9 10  1  0  0  0  0
 10 11  1  0  0  0  0
 12 11  1  0  0  0  0
 13 12  1  0  0  0  0
 13 11  1  0  0  0  0
 14 12  1  0  0  0  0
 15  1  1  0  0  0  0
 16 15  1  0  0  0  0
 16 21  1  0  0  0  0
 17 16  1  0  0  0  0
 17 18  1  0  0  0  0
 18 19  1  0  0  0  0
 20 18  1  0  0  0  0
 20 26  1  0  0  0  0
 20 22  1  0  0  0  0
 21 19  1  0  0  0  0
 22 21  1  0  0  0  0
 22 23  1  0  0  0  0
 23 25  1  0  0  0  0
 24 23  1  0  0  0  0
 24 25  1  0  0  0  0
 26 24  1  0  0  0  0
M  END
>  <REMARK>
 VINA RESULT:      -7.8      3.291      4.924
  5 active torsions:
  status: ('A' for Active; 'I' for Inactive)
    1  A    between atoms: C1_1  and  C2_2 
    2  A    between atoms: C1_1  and  O3_15 
    3  A    between atoms: C2_2  and  O1_3 
    4  A    between atoms: O1_3  and  C3_4 
    5  A    between atoms: O3_15  and  C13_16 

>  <TORSDO>
F 5

$$$$
../pdbqt/decoy.vina_out.21.pdbqt
 OpenBabel06052021513D

 26 33  0  0  1  0  0  0  0  0999 V2000
  -19.3430   63.0590   26.1550 C   0  0  0  0  0  0  0  0  0  0  0  0
  -18.8930   62.9390   24.7020 C   0  0  0  0  0  0  0  0  0  0  0  0
  -17.9310   63.9340   24.4040 O   0  0  0  0  0  0  0  0  0  0  0  0
  -18.3730   64.7720   23.3510 C   0  0  1  0  0  0  0  0  0  0  0  0
  -17.8690   66.2280   23.5120 C   0  0  0  0  0  0  0  0  0  0  0  0
  -17.1040   66.4800   22.1950 C   0  0  2  0  0  0  0  0  0  0  0  0
  -17.9170   65.6540   21.2240 C   0  0  0  0  0  0  0  0  0  0  0  0
  -15.7610   65.7100   22.2610 C   0  0  1  0  0  0  0  0  0  0  0  0
  -17.7480   64.3590   21.9970 C   0  0  1  0  0  0  0  0  0  0  0  0
  -16.2060   64.2470   22.1650 C   0  0  1  0  0  0  0  0  0  0  0  0
  -15.4650   63.6020   20.9930 C   0  0  2  0  0  0  0  0  0  0  0  0
  -14.5810   64.6230   20.4050 C   0  0  1  0  0  0  0  0  0  0  0  0
  -15.7210   64.1550   19.7220 O   0  0  0  0  0  0  0  0  0  0  0  0
  -14.8190   65.9680   21.0760 C   0  0  0  0  0  0  0  0  0  0  0  0
  -20.1080   64.2370   26.3050 O   0  0  0  0  0  0  0  0  0  0  0  0
  -21.3870   64.0740   25.7140 C   0  0  2  0  0  0  0  0  0  0  0  0
  -21.7400   65.3310   24.8810 C   0  0  0  0  0  0  0  0  0  0  0  0
  -22.9870   65.8880   25.5980 C   0  0  2  0  0  0  0  0  0  0  0  0
  -22.6550   65.5710   27.0360 C   0  0  0  0  0  0  0  0  0  0  0  0
  -24.1810   64.9440   25.3010 C   0  0  1  0  0  0  0  0  0  0  0  0
  -22.4960   64.0810   26.7960 C   0  0  1  0  0  0  0  0  0  0  0  0
  -23.8230   63.6860   26.0980 C   0  0  1  0  0  0  0  0  0  0  0  0
  -24.9880   63.3680   27.0350 C   0  0  2  0  0  0  0  0  0  0  0  0
  -26.0340   64.3800   26.8080 C   0  0  1  0  0  0  0  0  0  0  0  0
  -25.2870   64.3510   28.0000 O   0  0  0  0  0  0  0  0  0  0  0  0
  -25.5330   65.4400   25.8360 C   0  0  0  0  0  0  0  0  0  0  0  0
  1 15  1  0  0  0  0
  2  1  1  0  0  0  0
  3  2  1  0  0  0  0
  4  5  1  0  0  0  0
  4  3  1  1  0  0  0
  6  7  1  6  0  0  0
  6  8  1  0  0  0  0
  6  5  1  0  0  0  0
  8 14  1  6  0  0  0
  9  7  1  6  0  0  0
  9 10  1  0  0  0  0
  9  4  1  0  0  0  0
 10  8  1  0  0  0  0
 11 10  1  0  0  0  0
 12 11  1  0  0  0  0
 12 14  1  0  0  0  0
 13 12  1  0  0  0  0
 13 11  1  0  0  0  0
 16 15  1  0  0  0  0
 16 21  1  0  0  0  0
 17 18  1  0  0  0  0
 17 16  1  0  0  0  0
 18 19  1  0  0  0  0
 20 18  1  0  0  0  0
 20 26  1  0  0  0  0
 20 22  1  0  0  0  0
 21 19  1  0  0  0  0
 22 21  1  0  0  0  0
 22 23  1  0  0  0  0
 23 25  1  0  0  0  0
 24 23  1  0  0  0  0
 24 25  1  0  0  0  0
 26 24  1  0  0  0  0
M  END
>  <REMARK>
 VINA RESULT:      -7.7      1.236      1.851
  5 active torsions:
  status: ('A' for Active; 'I' for Inactive)
    1  A    between atoms: C1_1  and  C2_2 
    2  A    between atoms: C1_1  and  O3_15 
    3  A    between atoms: C2_2  and  O1_3 
    4  A    between atoms: O1_3  and  C3_4 
    5  A    between atoms: O3_15  and  C13_16 

>  <TORSDO>
F 5

$$$$
../pdbqt/decoy.vina_out.21.pdbqt
 OpenBabel06052021513D

 26 33  0  0  1  0  0  0  0  0999 V2000
  -20.5580   62.7150   23.6920 C   0  0  0  0  0  0  0  0  0  0  0  0
  -20.4310   62.5740   25.2060 C   0  0  0  0  0  0  0  0  0  0  0  0
  -21.7140   62.5190   25.8010 O   0  0  0  0  0  0  0  0  0  0  0  0
  -21.9270   63.6250   26.6610 C   0  0  1  0  0  0  0  0  0  0  0  0
  -22.6900   64.7750   25.9580 C   0  0  0  0  0  0  0  0  0  0  0  0
  -23.9260   64.9750   26.8600 C   0  0  2  0  0  0  0  0  0  0  0  0
  -23.3490   64.6520   28.2200 C   0  0  0  0  0  0  0  0  0  0  0  0
  -24.9020   63.7980   26.6120 C   0  0  1  0  0  0  0  0  0  0  0  0
  -22.8810   63.2630   27.8240 C   0  0  1  0  0  0  0  0  0  0  0  0
  -24.1660   62.6110   27.2400 C   0  0  1  0  0  0  0  0  0  0  0  0
  -25.0970   61.9650   28.2670 C   0  0  2  0  0  0  0  0  0  0  0  0
  -26.3660   62.7120   28.2540 C   0  0  1  0  0  0  0  0  0  0  0  0
  -25.4830   62.7810   29.3490 O   0  0  0  0  0  0  0  0  0  0  0  0
  -26.2490   63.9230   27.3390 C   0  0  0  0  0  0  0  0  0  0  0  0
  -20.3030   64.0570   23.3310 O   0  0  0  0  0  0  0  0  0  0  0  0
  -18.9230   64.3520   23.4730 C   0  0  2  0  0  0  0  0  0  0  0  0
  -18.7270   65.8850   23.5680 C   0  0  0  0  0  0  0  0  0  0  0  0
  -17.8830   66.2090   22.3170 C   0  0  2  0  0  0  0  0  0  0  0  0
  -18.4570   65.2260   21.3250 C   0  0  0  0  0  0  0  0  0  0  0  0
  -16.4470   65.6730   22.5470 C   0  0  1  0  0  0  0  0  0  0  0  0
  -18.1510   64.0070   22.1750 C   0  0  1  0  0  0  0  0  0  0  0  0
  -16.6390   64.1540   22.4850 C   0  0  1  0  0  0  0  0  0  0  0  0
  -15.6930   63.5970   21.4220 C   0  0  2  0  0  0  0  0  0  0  0  0
  -14.9310   64.7270   20.8640 C   0  0  1  0  0  0  0  0  0  0  0  0
  -15.9080   64.0560   20.1060 O   0  0  0  0  0  0  0  0  0  0  0  0
  -15.4450   66.0400   21.4420 C   0  0  0  0  0  0  0  0  0  0  0  0
  1  2  1  0  0  0  0
  2  3  1  0  0  0  0
  4  3  1  6  0  0  0
  4  9  1  0  0  0  0
  5  4  1  0  0  0  0
  6  5  1  6  0  0  0
  6  7  1  0  0  0  0
  8  6  1  0  0  0  0
  8 10  1  0  0  0  0
  8 14  1  1  0  0  0
  9  7  1  6  0  0  0
 10  9  1  0  0  0  0
 10 11  1  0  0  0  0
 11 13  1  0  0  0  0
 12 11  1  0  0  0  0
 12 13  1  0  0  0  0
 14 12  1  0  0  0  0
 15 16  1  0  0  0  0
 15  1  1  0  0  0  0
 16 17  1  0  0  0  0
 18 20  1  0  0  0  0
 18 17  1  0  0  0  0
 19 21  1  0  0  0  0
 19 18  1  0  0  0  0
 21 22  1  0  0  0  0
 21 16  1  0  0  0  0
 22 20  1  0  0  0  0
 23 22  1  0  0  0  0
 24 23  1  0  0  0  0
 24 26  1  0  0  0  0
 25 24  1  0  0  0  0
 25 23  1  0  0  0  0
 26 20  1  0  0  0  0
M  END
>  <REMARK>
 VINA RESULT:      -7.7      1.896      8.593
  5 active torsions:
  status: ('A' for Active; 'I' for Inactive)
    1  A    between atoms: C1_1  and  C2_2 
    2  A    between atoms: C1_1  and  O3_15 
    3  A    between atoms: C2_2  and  O1_3 
    4  A    between atoms: O1_3  and  C3_4 
    5  A    between atoms: O3_15  and  C13_16 

>  <TORSDO>
F 5

$$$$
../pdbqt/decoy.vina_out.21.pdbqt
 OpenBabel06052021513D

 26 33  0  0  1  0  0  0  0  0999 V2000
  -19.1180   66.3060   24.2460 C   0  0  0  0  0  0  0  0  0  0  0  0
  -19.2880   66.3250   25.7620 C   0  0  0  0  0  0  0  0  0  0  0  0
  -20.6530   66.1650   26.1030 O   0  0  0  0  0  0  0  0  0  0  0  0
  -21.1620   64.9390   25.6070 C   0  0  1  0  0  0  0  0  0  0  0  0
  -21.8630   64.1080   26.7110 C   0  0  0  0  0  0  0  0  0  0  0  0
  -23.2820   63.8990   26.1430 C   0  0  2  0  0  0  0  0  0  0  0  0
  -22.9930   63.8160   24.6610 C   0  0  0  0  0  0  0  0  0  0  0  0
  -24.0540   65.2380   26.2680 C   0  0  1  0  0  0  0  0  0  0  0  0
  -22.3100   65.1690   24.5950 C   0  0  1  0  0  0  0  0  0  0  0  0
  -23.3590   66.1250   25.2300 C   0  0  1  0  0  0  0  0  0  0  0  0
  -24.4250   66.6570   24.2710 C   0  0  2  0  0  0  0  0  0  0  0  0
  -25.7290   66.1350   24.7150 C   0  0  1  0  0  0  0  0  0  0  0  0
  -25.1240   65.6870   23.5250 O   0  0  0  0  0  0  0  0  0  0  0  0
  -25.5350   65.1590   25.8670 C   0  0  0  0  0  0  0  0  0  0  0  0
  -17.9330   66.9950   23.9060 O   0  0  0  0  0  0  0  0  0  0  0  0
  -17.4550   66.5610   22.6430 C   0  0  2  0  0  0  0  0  0  0  0  0
  -18.0340   65.1610   22.3210 C   0  0  0  0  0  0  0  0  0  0  0  0
  -16.7770   64.2700   22.2460 C   0  0  2  0  0  0  0  0  0  0  0  0
  -15.9220   64.8930   23.3240 C   0  0  0  0  0  0  0  0  0  0  0  0
  -16.0070   64.6210   20.9470 C   0  0  1  0  0  0  0  0  0  0  0  0
  -15.9340   66.2760   22.7000 C   0  0  1  0  0  0  0  0  0  0  0  0
  -15.4580   66.0200   21.2470 C   0  0  1  0  0  0  0  0  0  0  0  0
  -13.9420   65.9880   21.0480 C   0  0  2  0  0  0  0  0  0  0  0  0
  -13.5750   64.6280   20.6200 C   0  0  1  0  0  0  0  0  0  0  0  0
  -13.2290   65.1150   21.8930 O   0  0  0  0  0  0  0  0  0  0  0  0
  -14.7980   63.7200   20.6590 C   0  0  0  0  0  0  0  0  0  0  0  0
  1  2  1  0  0  0  0
  2  3  1  0  0  0  0
  4  3  1  1  0  0  0
  4  5  1  0  0  0  0
  6  7  1  6  0  0  0
  6  8  1  0  0  0  0
  6  5  1  0  0  0  0
  8 14  1  6  0  0  0
  9  7  1  1  0  0  0
  9 10  1  0  0  0  0
  9  4  1  0  0  0  0
 10  8  1  0  0  0  0
 11 12  1  0  0  0  0
 11 10  1  0  0  0  0
 12 14  1  0  0  0  0
 13 11  1  0  0  0  0
 13 12  1  0  0  0  0
 15  1  1  0  0  0  0
 16 21  1  0  0  0  0
 16 15  1  0  0  0  0
 17 16  1  0  0  0  0
 18 17  1  0  0  0  0
 18 19  1  0  0  0  0
 20 22  1  0  0  0  0
 20 18  1  0  0  0  0
 21 19  1  0  0  0  0
 22 21  1  0  0  0  0
 23 22  1  0  0  0  0
 23 25  1  0  0  0  0
 24 26  1  0  0  0  0
 24 23  1  0  0  0  0
 24 25  1  0  0  0  0
 26 20  1  0  0  0  0
M  END
>  <REMARK>
 VINA RESULT:      -7.6      1.344      8.356
  5 active torsions:
  status: ('A' for Active; 'I' for Inactive)
    1  A    between atoms: C1_1  and  C2_2 
    2  A    between atoms: C1_1  and  O3_15 
    3  A    between atoms: C2_2  and  O1_3 
    4  A    between atoms: O1_3  and  C3_4 
    5  A    between atoms: O3_15  and  C13_16 

>  <TORSDO>
F 5

$$$$
../pdbqt/decoy.vina_out.21.pdbqt
 OpenBabel06052021513D

 26 33  0  0  1  0  0  0  0  0999 V2000
  -18.6150   62.9100   24.1130 C   0  0  0  0  0  0  0  0  0  0  0  0
  -20.0940   63.0220   24.4720 C   0  0  0  0  0  0  0  0  0  0  0  0
  -20.3070   64.1340   25.3220 O   0  0  0  0  0  0  0  0  0  0  0  0
  -20.9360   65.1960   24.6250 C   0  0  1  0  0  0  0  0  0  0  0  0
  -22.2320   65.6710   25.3290 C   0  0  0  0  0  0  0  0  0  0  0  0
  -21.9670   67.1720   25.5690 C   0  0  2  0  0  0  0  0  0  0  0  0
  -21.1340   67.5190   24.3560 C   0  0  0  0  0  0  0  0  0  0  0  0
  -20.9520   67.3040   26.7330 C   0  0  1  0  0  0  0  0  0  0  0  0
  -20.0680   66.4770   24.6400 C   0  0  1  0  0  0  0  0  0  0  0  0
  -19.6530   66.7880   26.1060 C   0  0  1  0  0  0  0  0  0  0  0  0
  -18.5850   67.8710   26.2680 C   0  0  2  0  0  0  0  0  0  0  0  0
  -19.1990   69.0010   26.9870 C   0  0  1  0  0  0  0  0  0  0  0  0
  -18.8490   69.0980   25.6260 O   0  0  0  0  0  0  0  0  0  0  0  0
  -20.6860   68.7470   27.1860 C   0  0  0  0  0  0  0  0  0  0  0  0
  -18.3650   63.6650   22.9460 O   0  0  0  0  0  0  0  0  0  0  0  0
  -16.9960   64.0300   22.8790 C   0  0  2  0  0  0  0  0  0  0  0  0
  -16.8170   65.4770   23.4000 C   0  0  0  0  0  0  0  0  0  0  0  0
  -16.2900   66.2320   22.1630 C   0  0  2  0  0  0  0  0  0  0  0  0
  -17.0530   65.5400   21.0590 C   0  0  0  0  0  0  0  0  0  0  0  0
  -14.8270   65.7860   21.9060 C   0  0  1  0  0  0  0  0  0  0  0  0
  -16.5340   64.1570   21.4060 C   0  0  1  0  0  0  0  0  0  0  0  0
  -14.9950   64.3430   21.4200 C   0  0  1  0  0  0  0  0  0  0  0  0
  -14.3050   64.2150   20.0610 C   0  0  2  0  0  0  0  0  0  0  0  0
  -13.7160   65.5250   19.7340 C   0  0  1  0  0  0  0  0  0  0  0  0
  -14.8250   65.0220   19.0290 O   0  0  0  0  0  0  0  0  0  0  0  0
  -14.1140   66.5540   20.7840 C   0  0  0  0  0  0  0  0  0  0  0  0
  1  2  1  0  0  0  0
  2  3  1  0  0  0  0
  4  9  1  0  0  0  0
  4  3  1  1  0  0  0
  4  5  1  0  0  0  0
  5  6  1  0  0  0  0
  6  7  1  6  0  0  0
  6  8  1  0  0  0  0
  8 14  1  6  0  0  0
  9  7  1  1  0  0  0
  9 10  1  0  0  0  0
 10 11  1  0  0  0  0
 10  8  1  0  0  0  0
 11 12  1  0  0  0  0
 12 14  1  0  0  0  0
 13 11  1  0  0  0  0
 13 12  1  0  0  0  0
 15  1  1  0  0  0  0
 16 15  1  0  0  0  0
 16 17  1  0  0  0  0
 18 17  1  0  0  0  0
 19 21  1  0  0  0  0
 19 18  1  0  0  0  0
 20 18  1  0  0  0  0
 21 22  1  0  0  0  0
 21 16  1  0  0  0  0
 22 20  1  0  0  0  0
 23 22  1  0  0  0  0
 24 23  1  0  0  0  0
 24 26  1  0  0  0  0
 25 24  1  0  0  0  0
 25 23  1  0  0  0  0
 26 20  1  0  0  0  0
M  END
>  <REMARK>
 VINA RESULT:      -7.4      2.312      7.651
  5 active torsions:
  status: ('A' for Active; 'I' for Inactive)
    1  A    between atoms: C1_1  and  C2_2 
    2  A    between atoms: C1_1  and  O3_15 
    3  A    between atoms: C2_2  and  O1_3 
    4  A    between atoms: O1_3  and  C3_4 
    5  A    between atoms: O3_15  and  C13_16 

>  <TORSDO>
F 5

$$$$
../pdbqt/decoy.vina_out.21.pdbqt
 OpenBabel06052021513D

 26 33  0  0  1  0  0  0  0  0999 V2000
  -16.5780   64.1650   25.4200 C   0  0  0  0  0  0  0  0  0  0  0  0
  -17.9090   63.4350   25.5730 C   0  0  0  0  0  0  0  0  0  0  0  0
  -18.9360   64.1460   24.9080 O   0  0  0  0  0  0  0  0  0  0  0  0
  -19.8130   63.2630   24.2300 C   0  0  1  0  0  0  0  0  0  0  0  0
  -20.1990   62.0410   25.1000 C   0  0  0  0  0  0  0  0  0  0  0  0
  -21.7400   62.1140   25.1380 C   0  0  2  0  0  0  0  0  0  0  0  0
  -22.0390   62.6800   23.7690 C   0  0  0  0  0  0  0  0  0  0  0  0
  -22.1460   63.2710   26.0860 C   0  0  1  0  0  0  0  0  0  0  0  0
  -21.1870   63.9220   23.9640 C   0  0  1  0  0  0  0  0  0  0  0  0
  -21.7290   64.5150   25.2950 C   0  0  1  0  0  0  0  0  0  0  0  0
  -22.9540   65.4220   25.1580 C   0  0  2  0  0  0  0  0  0  0  0  0
  -24.0750   64.7700   25.8560 C   0  0  1  0  0  0  0  0  0  0  0  0
  -24.0460   64.8790   24.4520 O   0  0  0  0  0  0  0  0  0  0  0  0
  -23.6560   63.3880   26.3390 C   0  0  0  0  0  0  0  0  0  0  0  0
  -15.8510   63.5810   24.3590 O   0  0  0  0  0  0  0  0  0  0  0  0
  -15.7790   64.4730   23.2590 C   0  0  2  0  0  0  0  0  0  0  0  0
  -16.6790   63.9570   22.1100 C   0  0  0  0  0  0  0  0  0  0  0  0
  -15.6730   63.6850   20.9720 C   0  0  2  0  0  0  0  0  0  0  0  0
  -14.4840   63.1860   21.7570 C   0  0  0  0  0  0  0  0  0  0  0  0
  -15.1790   65.0490   20.4230 C   0  0  1  0  0  0  0  0  0  0  0  0
  -14.3720   64.4340   22.6120 C   0  0  1  0  0  0  0  0  0  0  0  0
  -14.3120   65.5800   21.5700 C   0  0  1  0  0  0  0  0  0  0  0  0
  -12.9230   65.8890   21.0120 C   0  0  2  0  0  0  0  0  0  0  0  0
  -12.9400   65.5800   19.5720 C   0  0  1  0  0  0  0  0  0  0  0  0
  -12.2140   64.7910   20.4830 O   0  0  0  0  0  0  0  0  0  0  0  0
  -14.2710   64.9480   19.1890 C   0  0  0  0  0  0  0  0  0  0  0  0
  1  2  1  0  0  0  0
  3  2  1  0  0  0  0
  4  3  1  1  0  0  0
  4  5  1  0  0  0  0
  5  6  1  0  0  0  0
  6  7  1  6  0  0  0
  6  8  1  0  0  0  0
  8 14  1  6  0  0  0
  9  7  1  1  0  0  0
  9  4  1  0  0  0  0
  9 10  1  0  0  0  0
 10  8  1  0  0  0  0
 11 10  1  0  0  0  0
 11 12  1  0  0  0  0
 12 14  1  0  0  0  0
 13 11  1  0  0  0  0
 13 12  1  0  0  0  0
 15  1  1  0  0  0  0
 16 15  1  0  0  0  0
 17 16  1  0  0  0  0
 18 19  1  0  0  0  0
 18 17  1  0  0  0  0
 19 21  1  0  0  0  0
 20 18  1  0  0  0  0
 20 22  1  0  0  0  0
 21 16  1  0  0  0  0
 22 21  1  0  0  0  0
 23 22  1  0  0  0  0
 24 25  1  0  0  0  0
 24 23  1  0  0  0  0
 25 23  1  0  0  0  0
 26 24  1  0  0  0  0
 26 20  1  0  0  0  0
M  END
>  <REMARK>
 VINA RESULT:      -7.1      1.727      8.477
  5 active torsions:
  status: ('A' for Active; 'I' for Inactive)
    1  A    between atoms: C1_1  and  C2_2 
    2  A    between atoms: C1_1  and  O3_15 
    3  A    between atoms: C2_2  and  O1_3 
    4  A    between atoms: O1_3  and  C3_4 
    5  A    between atoms: O3_15  and  C13_16 

>  <TORSDO>
F 5

$$$$
../pdbqt/decoy.vina_out.21.pdbqt
 OpenBabel06052021513D

 26 33  0  0  1  0  0  0  0  0999 V2000
  -19.1460   63.7870   24.6180 C   0  0  0  0  0  0  0  0  0  0  0  0
  -17.7930   64.4440   24.3620 C   0  0  0  0  0  0  0  0  0  0  0  0
  -17.7370   64.9460   23.0400 O   0  0  0  0  0  0  0  0  0  0  0  0
  -16.9300   64.1230   22.2150 C   0  0  1  0  0  0  0  0  0  0  0  0
  -17.0140   64.5300   20.7220 C   0  0  0  0  0  0  0  0  0  0  0  0
  -15.5420   64.8100   20.3540 C   0  0  2  0  0  0  0  0  0  0  0  0
  -14.8270   63.8010   21.2240 C   0  0  0  0  0  0  0  0  0  0  0  0
  -15.1340   66.1630   20.9900 C   0  0  1  0  0  0  0  0  0  0  0  0
  -15.4250   64.3150   22.5200 C   0  0  1  0  0  0  0  0  0  0  0  0
  -15.0920   65.8330   22.4860 C   0  0  1  0  0  0  0  0  0  0  0  0
  -13.7080   66.2120   23.0160 C   0  0  2  0  0  0  0  0  0  0  0  0
  -12.9370   66.7740   21.8950 C   0  0  1  0  0  0  0  0  0  0  0  0
  -12.6200   65.5190   22.4500 O   0  0  0  0  0  0  0  0  0  0  0  0
  -13.7310   66.6520   20.6020 C   0  0  0  0  0  0  0  0  0  0  0  0
  -20.1720   64.6720   24.2190 O   0  0  0  0  0  0  0  0  0  0  0  0
  -21.1070   64.8500   25.2710 C   0  0  2  0  0  0  0  0  0  0  0  0
  -21.2750   63.5220   26.0480 C   0  0  0  0  0  0  0  0  0  0  0  0
  -22.7580   63.1660   25.8180 C   0  0  2  0  0  0  0  0  0  0  0  0
  -22.9510   63.6510   24.4010 C   0  0  0  0  0  0  0  0  0  0  0  0
  -23.6290   64.1490   26.6430 C   0  0  1  0  0  0  0  0  0  0  0  0
  -22.5310   65.0770   24.7060 C   0  0  1  0  0  0  0  0  0  0  0  0
  -23.4420   65.4730   25.8970 C   0  0  1  0  0  0  0  0  0  0  0  0
  -24.8240   66.0050   25.5180 C   0  0  2  0  0  0  0  0  0  0  0  0
  -25.8250   65.0550   26.0320 C   0  0  1  0  0  0  0  0  0  0  0  0
  -25.5810   65.1900   24.6520 O   0  0  0  0  0  0  0  0  0  0  0  0
  -25.1320   63.8360   26.6270 C   0  0  0  0  0  0  0  0  0  0  0  0
  2  1  1  0  0  0  0
  3  2  1  0  0  0  0
  4  9  1  0  0  0  0
  4  3  1  1  0  0  0
  5  4  1  0  0  0  0
  6  5  1  1  0  0  0
  6  8  1  0  0  0  0
  6  7  1  0  0  0  0
  8 14  1  6  0  0  0
  8 10  1  0  0  0  0
  9  7  1  6  0  0  0
 10  9  1  0  0  0  0
 10 11  1  0  0  0  0
 12 13  1  0  0  0  0
 12 11  1  0  0  0  0
 13 11  1  0  0  0  0
 14 12  1  0  0  0  0
 15  1  1  0  0  0  0
 15 16  1  0  0  0  0
 16 17  1  0  0  0  0
 18 17  1  0  0  0  0
 18 20  1  0  0  0  0
 19 21  1  0  0  0  0
 19 18  1  0  0  0  0
 21 16  1  0  0  0  0
 21 22  1  0  0  0  0
 22 20  1  0  0  0  0
 23 22  1  0  0  0  0
 23 24  1  0  0  0  0
 24 26  1  0  0  0  0
 25 23  1  0  0  0  0
 25 24  1  0  0  0  0
 26 20  1  0  0  0  0
M  END
>  <REMARK>
 VINA RESULT:      -7.0      1.509      2.258
  5 active torsions:
  status: ('A' for Active; 'I' for Inactive)
    1  A    between atoms: C1_1  and  C2_2 
    2  A    between atoms: C1_1  and  O3_15 
    3  A    between atoms: C2_2  and  O1_3 
    4  A    between atoms: O1_3  and  C3_4 
    5  A    between atoms: O3_15  and  C13_16 

>  <TORSDO>
F 5

$$$$
../pdbqt/decoy.vina_out.21.pdbqt
 OpenBabel06052021513D

 26 33  0  0  1  0  0  0  0  0999 V2000
  -19.9930   66.0370   24.5410 C   0  0  0  0  0  0  0  0  0  0  0  0
  -19.3280   65.4980   23.2780 C   0  0  0  0  0  0  0  0  0  0  0  0
  -18.2380   64.6610   23.6190 O   0  0  0  0  0  0  0  0  0  0  0  0
  -17.6760   64.0590   22.4660 C   0  0  1  0  0  0  0  0  0  0  0  0
  -17.8650   64.9320   21.2000 C   0  0  0  0  0  0  0  0  0  0  0  0
  -16.4190   65.1420   20.7030 C   0  0  2  0  0  0  0  0  0  0  0  0
  -15.7810   63.8290   21.1000 C   0  0  0  0  0  0  0  0  0  0  0  0
  -15.7270   66.1600   21.6440 C   0  0  1  0  0  0  0  0  0  0  0  0
  -16.1350   63.9640   22.5700 C   0  0  1  0  0  0  0  0  0  0  0  0
  -15.5670   65.3630   22.9430 C   0  0  1  0  0  0  0  0  0  0  0  0
  -14.0880   65.3860   23.3340 C   0  0  2  0  0  0  0  0  0  0  0  0
  -13.3700   66.1850   22.3270 C   0  0  1  0  0  0  0  0  0  0  0  0
  -13.1990   64.7900   22.4180 O   0  0  0  0  0  0  0  0  0  0  0  0
  -14.3170   66.5800   21.2020 C   0  0  0  0  0  0  0  0  0  0  0  0
  -21.3820   65.7870   24.4740 O   0  0  0  0  0  0  0  0  0  0  0  0
  -21.6910   64.5490   25.0930 C   0  0  2  0  0  0  0  0  0  0  0  0
  -23.0170   63.9960   24.5170 C   0  0  0  0  0  0  0  0  0  0  0  0
  -23.9490   63.9690   25.7450 C   0  0  2  0  0  0  0  0  0  0  0  0
  -23.4920   65.2090   26.4770 C   0  0  0  0  0  0  0  0  0  0  0  0
  -23.4880   62.8230   26.6820 C   0  0  1  0  0  0  0  0  0  0  0  0
  -22.0480   64.7560   26.5860 C   0  0  1  0  0  0  0  0  0  0  0  0
  -22.1590   63.3510   27.2320 C   0  0  1  0  0  0  0  0  0  0  0  0
  -22.2360   63.3350   28.7590 C   0  0  2  0  0  0  0  0  0  0  0  0
  -23.5540   62.7960   29.1350 C   0  0  1  0  0  0  0  0  0  0  0  0
  -23.2310   64.1510   29.3340 O   0  0  0  0  0  0  0  0  0  0  0  0
  -24.4040   62.5790   27.8900 C   0  0  0  0  0  0  0  0  0  0  0  0
  2  3  1  0  0  0  0
  2  1  1  0  0  0  0
  4  9  1  0  0  0  0
  4  3  1  1  0  0  0
  5  4  1  0  0  0  0
  6  7  1  1  0  0  0
  6  5  1  0  0  0  0
  6  8  1  0  0  0  0
  8 14  1  6  0  0  0
  8 10  1  0  0  0  0
  9  7  1  6  0  0  0
  9 10  1  0  0  0  0
 10 11  1  0  0  0  0
 12 13  1  0  0  0  0
 12 11  1  0  0  0  0
 13 11  1  0  0  0  0
 14 12  1  0  0  0  0
 15  1  1  0  0  0  0
 15 16  1  0  0  0  0
 16 21  1  0  0  0  0
 17 16  1  0  0  0  0
 17 18  1  0  0  0  0
 18 19  1  0  0  0  0
 18 20  1  0  0  0  0
 19 21  1  0  0  0  0
 20 22  1  0  0  0  0
 20 26  1  0  0  0  0
 21 22  1  0  0  0  0
 22 23  1  0  0  0  0
 23 24  1  0  0  0  0
 23 25  1  0  0  0  0
 24 25  1  0  0  0  0
 26 24  1  0  0  0  0
M  END
>  <REMARK>
 VINA RESULT:      -6.9      1.779      3.030
  5 active torsions:
  status: ('A' for Active; 'I' for Inactive)
    1  A    between atoms: C1_1  and  C2_2 
    2  A    between atoms: C1_1  and  O3_15 
    3  A    between atoms: C2_2  and  O1_3 
    4  A    between atoms: O1_3  and  C3_4 
    5  A    between atoms: O3_15  and  C13_16 

>  <TORSDO>
F 5

$$$$
