../pdbqt/decoy.vina_out.11.pdbqt
 OpenBabel06052021513D

 16 17  0  0  0  0  0  0  0  0999 V2000
  -27.8000   66.5570   22.1640 O   0  0  0  0  0  0  0  0  0  0  0  0
  -27.4280   66.0450   23.4010 C   0  0  0  0  0  0  0  0  0  0  0  0
  -28.3490   65.4080   24.1700 N   0  0  0  0  0  0  0  0  0  0  0  0
  -28.0130   64.8990   25.3830 C   0  0  0  0  0  0  0  0  0  0  0  0
  -26.7420   65.0230   25.8450 N   0  0  0  0  0  0  0  0  0  0  0  0
  -25.7810   65.6490   25.1130 C   0  0  0  0  0  0  0  0  0  0  0  0
  -26.1150   66.1820   23.8570 C   0  0  0  0  0  0  0  0  0  0  0  0
  -25.1700   66.8380   23.0740 O   0  0  0  0  0  0  0  0  0  0  0  0
  -24.3880   65.7710   25.6860 C   0  0  0  0  0  0  0  0  0  0  0  0
  -23.3500   65.3480   24.7110 N   0  0  0  0  0  0  0  0  0  0  0  0
  -22.0420   65.9900   24.9850 C   0  0  0  0  0  0  0  0  0  0  0  0
  -21.3500   65.4190   26.2340 C   0  0  0  0  0  0  0  0  0  0  0  0
  -21.1900   63.9040   26.1150 C   0  0  0  0  0  0  0  0  0  0  0  0
  -22.5360   63.2390   25.8290 C   0  0  0  0  0  0  0  0  0  0  0  0
  -23.2110   63.8730   24.6010 C   0  0  0  0  0  0  0  0  0  0  0  0
  -23.6490   65.6960   23.7680 H   0  0  0  0  0  0  0  0  0  0  0  0
  1  2  2  0  0  0  0
  2  7  1  0  0  0  0
  2  3  1  0  0  0  0
  3  4  1  0  0  0  0
  4  5  2  0  0  0  0
  6  9  1  0  0  0  0
  6  5  1  0  0  0  0
  7  6  2  0  0  0  0
  8  7  1  0  0  0  0
 10 11  1  0  0  0  0
 10  9  1  0  0  0  0
 11 12  1  0  0  0  0
 13 12  1  0  0  0  0
 14 13  1  0  0  0  0
 15 10  1  0  0  0  0
 15 14  1  0  0  0  0
 16 10  1  0  0  0  0
M  END
>  <MODEL>
1

>  <REMARK>
 VINA RESULT:      -6.1      0.000      0.000
  2 active torsions:
  status: ('A' for Active; 'I' for Inactive)
    1  A    between atoms: C3_6  and  C4_7 
    2  A    between atoms: C4_7  and  N3_8 

>  <TORSDO>
F 2

$$$$
../pdbqt/decoy.vina_out.11.pdbqt
 OpenBabel06052021513D

 16 17  0  0  0  0  0  0  0  0999 V2000
  -29.4200   65.6240   23.9300 O   0  0  0  0  0  0  0  0  0  0  0  0
  -28.0790   65.9470   23.7640 C   0  0  0  0  0  0  0  0  0  0  0  0
  -27.6710   66.5620   22.6240 N   0  0  0  0  0  0  0  0  0  0  0  0
  -26.3660   66.8880   22.4350 C   0  0  0  0  0  0  0  0  0  0  0  0
  -25.4480   66.6000   23.3920 N   0  0  0  0  0  0  0  0  0  0  0  0
  -25.8040   65.9860   24.5540 C   0  0  0  0  0  0  0  0  0  0  0  0
  -27.1510   65.6420   24.7610 C   0  0  0  0  0  0  0  0  0  0  0  0
  -27.5640   65.0080   25.9290 O   0  0  0  0  0  0  0  0  0  0  0  0
  -24.7350   65.6760   25.5750 C   0  0  0  0  0  0  0  0  0  0  0  0
  -23.4270   65.3820   24.9360 N   0  0  0  0  0  0  0  0  0  0  0  0
  -22.3050   66.0440   25.6440 C   0  0  0  0  0  0  0  0  0  0  0  0
  -21.9880   65.3890   26.9980 C   0  0  0  0  0  0  0  0  0  0  0  0
  -21.7060   63.8970   26.8220 C   0  0  0  0  0  0  0  0  0  0  0  0
  -22.8590   63.2120   26.0900 C   0  0  0  0  0  0  0  0  0  0  0  0
  -23.1700   63.9280   24.7640 C   0  0  0  0  0  0  0  0  0  0  0  0
  -23.4490   65.8010   23.9750 H   0  0  0  0  0  0  0  0  0  0  0  0
  2  1  2  0  0  0  0
  2  7  1  0  0  0  0
  3  2  1  0  0  0  0
  4  3  1  0  0  0  0
  4  5  2  0  0  0  0
  5  6  1  0  0  0  0
  6  7  2  0  0  0  0
  6  9  1  0  0  0  0
  7  8  1  0  0  0  0
 10  9  1  0  0  0  0
 10 11  1  0  0  0  0
 11 12  1  0  0  0  0
 13 12  1  0  0  0  0
 14 13  1  0  0  0  0
 15 10  1  0  0  0  0
 15 14  1  0  0  0  0
 16 10  1  0  0  0  0
M  END
>  <REMARK>
 VINA RESULT:      -5.9      1.716      1.990
  2 active torsions:
  status: ('A' for Active; 'I' for Inactive)
    1  A    between atoms: C3_6  and  C4_7 
    2  A    between atoms: C4_7  and  N3_8 

>  <TORSDO>
F 2

$$$$
../pdbqt/decoy.vina_out.11.pdbqt
 OpenBabel06052021513D

 16 17  0  0  0  0  0  0  0  0999 V2000
  -28.0540   66.6200   22.7540 O   0  0  0  0  0  0  0  0  0  0  0  0
  -27.1740   66.2330   23.7570 C   0  0  0  0  0  0  0  0  0  0  0  0
  -27.6320   65.5100   24.8120 N   0  0  0  0  0  0  0  0  0  0  0  0
  -26.7940   65.1200   25.8070 C   0  0  0  0  0  0  0  0  0  0  0  0
  -25.4790   65.4530   25.7580 N   0  0  0  0  0  0  0  0  0  0  0  0
  -24.9680   66.1740   24.7230 C   0  0  0  0  0  0  0  0  0  0  0  0
  -25.8240   66.5860   23.6880 C   0  0  0  0  0  0  0  0  0  0  0  0
  -25.3530   67.3310   22.6120 O   0  0  0  0  0  0  0  0  0  0  0  0
  -23.5000   66.5280   24.7320 C   0  0  0  0  0  0  0  0  0  0  0  0
  -22.7050   65.5740   25.5480 N   0  0  0  0  0  0  0  0  0  0  0  0
  -21.6770   64.8770   24.7380 C   0  0  0  0  0  0  0  0  0  0  0  0
  -20.5050   65.7930   24.3500 C   0  0  0  0  0  0  0  0  0  0  0  0
  -19.8750   66.4180   25.5940 C   0  0  0  0  0  0  0  0  0  0  0  0
  -20.9320   67.1340   26.4340 C   0  0  0  0  0  0  0  0  0  0  0  0
  -22.1050   66.1930   26.7580 C   0  0  0  0  0  0  0  0  0  0  0  0
  -23.3620   64.8280   25.8820 H   0  0  0  0  0  0  0  0  0  0  0  0
  1  2  2  0  0  0  0
  2  3  1  0  0  0  0
  3  4  1  0  0  0  0
  5  4  2  0  0  0  0
  6  9  1  0  0  0  0
  6  5  1  0  0  0  0
  7  2  1  0  0  0  0
  7  6  2  0  0  0  0
  8  7  1  0  0  0  0
  9 10  1  0  0  0  0
 10 16  1  0  0  0  0
 10 15  1  0  0  0  0
 11 10  1  0  0  0  0
 12 11  1  0  0  0  0
 12 13  1  0  0  0  0
 13 14  1  0  0  0  0
 14 15  1  0  0  0  0
M  END
>  <REMARK>
 VINA RESULT:      -5.9      1.251      1.896
  2 active torsions:
  status: ('A' for Active; 'I' for Inactive)
    1  A    between atoms: C3_6  and  C4_7 
    2  A    between atoms: C4_7  and  N3_8 

>  <TORSDO>
F 2

$$$$
../pdbqt/decoy.vina_out.11.pdbqt
 OpenBabel06052021513D

 16 17  0  0  0  0  0  0  0  0999 V2000
  -19.3320   61.1290   23.6580 O   0  0  0  0  0  0  0  0  0  0  0  0
  -20.0480   61.9520   24.5180 C   0  0  0  0  0  0  0  0  0  0  0  0
  -19.5530   62.2290   25.7520 N   0  0  0  0  0  0  0  0  0  0  0  0
  -20.2330   63.0290   26.6130 C   0  0  0  0  0  0  0  0  0  0  0  0
  -21.4260   63.5640   26.2470 N   0  0  0  0  0  0  0  0  0  0  0  0
  -21.9660   63.3200   25.0220 C   0  0  0  0  0  0  0  0  0  0  0  0
  -21.2730   62.4920   24.1210 C   0  0  0  0  0  0  0  0  0  0  0  0
  -21.7860   62.2070   22.8600 O   0  0  0  0  0  0  0  0  0  0  0  0
  -23.3040   63.9300   24.6770 C   0  0  0  0  0  0  0  0  0  0  0  0
  -23.5710   65.1610   25.4650 N   0  0  0  0  0  0  0  0  0  0  0  0
  -23.8430   66.3270   24.5910 C   0  0  0  0  0  0  0  0  0  0  0  0
  -25.2210   66.2530   23.9120 C   0  0  0  0  0  0  0  0  0  0  0  0
  -26.3270   66.0930   24.9550 C   0  0  0  0  0  0  0  0  0  0  0  0
  -26.0480   64.8930   25.8600 C   0  0  0  0  0  0  0  0  0  0  0  0
  -24.6430   64.9890   26.4790 C   0  0  0  0  0  0  0  0  0  0  0  0
  -22.6920   65.3920   25.9890 H   0  0  0  0  0  0  0  0  0  0  0  0
  1  2  2  0  0  0  0
  2  3  1  0  0  0  0
  3  4  1  0  0  0  0
  5  4  2  0  0  0  0
  6  5  1  0  0  0  0
  7  2  1  0  0  0  0
  7  6  2  0  0  0  0
  8  7  1  0  0  0  0
  9  6  1  0  0  0  0
  9 10  1  0  0  0  0
 10 16  1  0  0  0  0
 10 15  1  0  0  0  0
 11 10  1  0  0  0  0
 12 11  1  0  0  0  0
 12 13  1  0  0  0  0
 13 14  1  0  0  0  0
 14 15  1  0  0  0  0
M  END
>  <REMARK>
 VINA RESULT:      -5.7      3.229      5.985
  2 active torsions:
  status: ('A' for Active; 'I' for Inactive)
    1  A    between atoms: C3_6  and  C4_7 
    2  A    between atoms: C4_7  and  N3_8 

>  <TORSDO>
F 2

$$$$
../pdbqt/decoy.vina_out.11.pdbqt
 OpenBabel06052021513D

 16 17  0  0  0  0  0  0  0  0999 V2000
  -27.0700   67.5020   23.2230 O   0  0  0  0  0  0  0  0  0  0  0  0
  -27.4860   66.4110   23.9770 C   0  0  0  0  0  0  0  0  0  0  0  0
  -28.7580   65.9530   23.8500 N   0  0  0  0  0  0  0  0  0  0  0  0
  -29.1920   64.8900   24.5760 C   0  0  0  0  0  0  0  0  0  0  0  0
  -28.3520   64.2710   25.4440 N   0  0  0  0  0  0  0  0  0  0  0  0
  -27.0670   64.6890   25.6070 C   0  0  0  0  0  0  0  0  0  0  0  0
  -26.6060   65.7880   24.8640 C   0  0  0  0  0  0  0  0  0  0  0  0
  -25.3040   66.2590   25.0000 O   0  0  0  0  0  0  0  0  0  0  0  0
  -26.1840   63.9700   26.6000 C   0  0  0  0  0  0  0  0  0  0  0  0
  -26.5390   64.3060   28.0030 N   0  0  0  0  0  0  0  0  0  0  0  0
  -27.7120   63.5330   28.4760 C   0  0  0  0  0  0  0  0  0  0  0  0
  -27.3850   62.0520   28.7290 C   0  0  0  0  0  0  0  0  0  0  0  0
  -26.2220   61.9190   29.7120 C   0  0  0  0  0  0  0  0  0  0  0  0
  -25.0120   62.7180   29.2300 C   0  0  0  0  0  0  0  0  0  0  0  0
  -25.3980   64.1800   28.9450 C   0  0  0  0  0  0  0  0  0  0  0  0
  -26.8340   65.3130   28.0160 H   0  0  0  0  0  0  0  0  0  0  0  0
  1  2  2  0  0  0  0
  2  7  1  0  0  0  0
  3  2  1  0  0  0  0
  3  4  1  0  0  0  0
  4  5  2  0  0  0  0
  5  6  1  0  0  0  0
  6  9  1  0  0  0  0
  7  8  1  0  0  0  0
  7  6  2  0  0  0  0
  9 10  1  0  0  0  0
 10 16  1  0  0  0  0
 10 11  1  0  0  0  0
 10 15  1  0  0  0  0
 11 12  1  0  0  0  0
 12 13  1  0  0  0  0
 14 13  1  0  0  0  0
 15 14  1  0  0  0  0
M  END
>  <REMARK>
 VINA RESULT:      -5.5      3.060      3.957
  2 active torsions:
  status: ('A' for Active; 'I' for Inactive)
    1  A    between atoms: C3_6  and  C4_7 
    2  A    between atoms: C4_7  and  N3_8 

>  <TORSDO>
F 2

$$$$
../pdbqt/decoy.vina_out.11.pdbqt
 OpenBabel06052021513D

 16 17  0  0  0  0  0  0  0  0999 V2000
  -18.7810   69.0460   25.5530 O   0  0  0  0  0  0  0  0  0  0  0  0
  -19.5020   67.9150   25.1890 C   0  0  0  0  0  0  0  0  0  0  0  0
  -18.9830   67.0500   24.2800 N   0  0  0  0  0  0  0  0  0  0  0  0
  -19.6670   65.9380   23.9050 C   0  0  0  0  0  0  0  0  0  0  0  0
  -20.8870   65.6770   24.4410 N   0  0  0  0  0  0  0  0  0  0  0  0
  -21.4510   66.5100   25.3570 C   0  0  0  0  0  0  0  0  0  0  0  0
  -20.7550   67.6650   25.7520 C   0  0  0  0  0  0  0  0  0  0  0  0
  -21.2930   68.5520   26.6800 O   0  0  0  0  0  0  0  0  0  0  0  0
  -22.8190   66.1760   25.9050 C   0  0  0  0  0  0  0  0  0  0  0  0
  -23.4700   65.0820   25.1400 N   0  0  0  0  0  0  0  0  0  0  0  0
  -23.8260   63.9360   26.0100 C   0  0  0  0  0  0  0  0  0  0  0  0
  -25.0200   64.2380   26.9320 C   0  0  0  0  0  0  0  0  0  0  0  0
  -26.2300   64.6880   26.1140 C   0  0  0  0  0  0  0  0  0  0  0  0
  -25.8660   65.8670   25.2130 C   0  0  0  0  0  0  0  0  0  0  0  0
  -24.6400   65.5350   24.3440 C   0  0  0  0  0  0  0  0  0  0  0  0
  -22.7630   64.7160   24.4570 H   0  0  0  0  0  0  0  0  0  0  0  0
  2  1  2  0  0  0  0
  2  7  1  0  0  0  0
  3  2  1  0  0  0  0
  4  3  1  0  0  0  0
  4  5  2  0  0  0  0
  5  6  1  0  0  0  0
  6  7  2  0  0  0  0
  6  9  1  0  0  0  0
  7  8  1  0  0  0  0
 10  9  1  0  0  0  0
 10 11  1  0  0  0  0
 11 12  1  0  0  0  0
 13 12  1  0  0  0  0
 14 13  1  0  0  0  0
 15 10  1  0  0  0  0
 15 14  1  0  0  0  0
 16 10  1  0  0  0  0
M  END
>  <REMARK>
 VINA RESULT:      -5.4      3.284      5.942
  2 active torsions:
  status: ('A' for Active; 'I' for Inactive)
    1  A    between atoms: C3_6  and  C4_7 
    2  A    between atoms: C4_7  and  N3_8 

>  <TORSDO>
F 2

$$$$
../pdbqt/decoy.vina_out.11.pdbqt
 OpenBabel06052021513D

 16 17  0  0  0  0  0  0  0  0999 V2000
  -17.7050   67.1780   23.2930 O   0  0  0  0  0  0  0  0  0  0  0  0
  -18.6630   66.1890   23.4800 C   0  0  0  0  0  0  0  0  0  0  0  0
  -18.4450   64.9410   22.9920 N   0  0  0  0  0  0  0  0  0  0  0  0
  -19.3650   63.9560   23.1590 C   0  0  0  0  0  0  0  0  0  0  0  0
  -20.5230   64.2120   23.8210 N   0  0  0  0  0  0  0  0  0  0  0  0
  -20.7900   65.4450   24.3310 C   0  0  0  0  0  0  0  0  0  0  0  0
  -19.8470   66.4740   24.1640 C   0  0  0  0  0  0  0  0  0  0  0  0
  -20.0760   67.7530   24.6610 O   0  0  0  0  0  0  0  0  0  0  0  0
  -22.1020   65.6740   25.0440 C   0  0  0  0  0  0  0  0  0  0  0  0
  -23.1090   64.6380   24.6970 N   0  0  0  0  0  0  0  0  0  0  0  0
  -23.3820   63.7300   25.8360 C   0  0  0  0  0  0  0  0  0  0  0  0
  -24.2020   64.4030   26.9500 C   0  0  0  0  0  0  0  0  0  0  0  0
  -25.5060   64.9690   26.3890 C   0  0  0  0  0  0  0  0  0  0  0  0
  -25.2290   65.9030   25.2120 C   0  0  0  0  0  0  0  0  0  0  0  0
  -24.3680   65.2020   24.1470 C   0  0  0  0  0  0  0  0  0  0  0  0
  -22.6910   64.0380   23.9440 H   0  0  0  0  0  0  0  0  0  0  0  0
  1  2  2  0  0  0  0
  2  7  1  0  0  0  0
  3  4  1  0  0  0  0
  3  2  1  0  0  0  0
  4  5  2  0  0  0  0
  5  6  1  0  0  0  0
  6  9  1  0  0  0  0
  7  6  2  0  0  0  0
  7  8  1  0  0  0  0
 10  9  1  0  0  0  0
 10 11  1  0  0  0  0
 11 12  1  0  0  0  0
 13 12  1  0  0  0  0
 14 13  1  0  0  0  0
 15 10  1  0  0  0  0
 15 14  1  0  0  0  0
 16 10  1  0  0  0  0
M  END
>  <REMARK>
 VINA RESULT:      -5.3      3.359      6.109
  2 active torsions:
  status: ('A' for Active; 'I' for Inactive)
    1  A    between atoms: C3_6  and  C4_7 
    2  A    between atoms: C4_7  and  N3_8 

>  <TORSDO>
F 2

$$$$
