../pdbqt/decoy.vina_out.15.pdbqt
 OpenBabel06052021513D

 17 18  0  0  1  0  0  0  0  0999 V2000
  -20.4540   65.7830   24.4410 P   0  0  1  0  0  0  0  0  0  0  0  0
  -20.8130   67.4370   24.2530 O   0  0  0  0  0  0  0  0  0  0  0  0
  -21.2410   67.9410   25.4980 C   0  0  0  0  0  0  0  0  0  0  0  0
  -20.1650   67.7950   26.6020 C   0  0  1  0  0  0  0  0  0  0  0  0
  -20.6770   68.4490   27.8990 C   0  0  0  0  0  0  0  0  0  0  0  0
  -19.9300   66.2790   26.8660 C   0  0  0  0  0  0  0  0  0  0  0  0
  -19.3830   65.6060   25.7530 O   0  0  0  0  0  0  0  0  0  0  0  0
  -21.7700   64.9540   24.6990 N   0  0  2  0  0  0  0  0  0  0  0  0
  -23.0690   64.7240   25.3710 C   0  0  2  0  0  0  0  0  0  0  0  0
  -22.6480   63.7840   24.4570 C   0  0  0  0  0  0  0  0  0  0  0  0
  -24.1420   65.7140   24.9020 C   0  0  0  0  0  0  0  0  0  0  0  0
  -25.4280   65.5300   25.6990 C   0  0  0  0  0  0  0  0  0  0  0  0
  -19.7090   65.2140   23.0350 O   0  0  0  0  0  0  0  0  0  0  0  0
  -18.7890   64.9790   23.3160 H   0  0  0  0  0  0  0  0  0  0  0  0
  -18.9280   68.4760   26.1840 N   0  0  0  0  0  0  0  0  0  0  0  0
  -17.8060   67.9500   26.3460 O   0  0  0  0  0  0  0  0  0  0  0  0
  -18.9900   69.7480   25.6640 O   0  0  0  0  0  0  0  0  0  0  0  0
  1 13  1  6  0  0  0
  1  8  1  0  0  0  0
  1  7  1  0  0  0  0
  2  1  1  0  0  0  0
  2  3  1  0  0  0  0
  3  4  1  0  0  0  0
  4  6  1  0  0  0  0
  4  5  1  1  0  0  0
  7  6  1  0  0  0  0
  8 10  1  1  0  0  0
  9  8  1  6  0  0  0
 10  9  1  0  0  0  0
 11  9  1  0  0  0  0
 11 12  1  0  0  0  0
 13 14  1  0  0  0  0
 15 16  2  0  0  0  0
 15  4  1  0  0  0  0
 17 15  2  0  0  0  0
M  END
>  <MODEL>
1

>  <REMARK>
 VINA RESULT:      -5.6      0.000      0.000
  4 active torsions:
  status: ('A' for Active; 'I' for Inactive)
    1  A    between atoms: C2_2  and  C3_3 
    2  A    between atoms: N1_5  and  P1_6 
    3  A    between atoms: P1_6  and  O1_7 
    4  A    between atoms: C6_10  and  N2_12 

>  <TORSDO>
F 4

$$$$
../pdbqt/decoy.vina_out.15.pdbqt
 OpenBabel06052021513D

 17 18  0  0  1  0  0  0  0  0999 V2000
  -18.8910   62.5060   23.5510 P   0  0  1  0  0  0  0  0  0  0  0  0
  -19.3480   63.4760   22.2280 O   0  0  0  0  0  0  0  0  0  0  0  0
  -18.7790   64.7540   22.3990 C   0  0  0  0  0  0  0  0  0  0  0  0
  -17.2320   64.7140   22.4680 C   0  0  1  0  0  0  0  0  0  0  0  0
  -16.6920   66.1520   22.5630 C   0  0  0  0  0  0  0  0  0  0  0  0
  -16.8140   63.9360   23.7500 C   0  0  0  0  0  0  0  0  0  0  0  0
  -17.1990   62.5790   23.7190 O   0  0  0  0  0  0  0  0  0  0  0  0
  -19.5900   63.0050   24.8730 N   0  0  2  0  0  0  0  0  0  0  0  0
  -20.6370   63.7520   25.6060 C   0  0  2  0  0  0  0  0  0  0  0  0
  -19.6850   63.0930   26.3510 C   0  0  0  0  0  0  0  0  0  0  0  0
  -22.0110   63.0830   25.4890 C   0  0  0  0  0  0  0  0  0  0  0  0
  -22.6330   63.3670   24.1260 C   0  0  0  0  0  0  0  0  0  0  0  0
  -19.3520   60.9070   23.2520 O   0  0  0  0  0  0  0  0  0  0  0  0
  -20.0300   60.9720   22.5330 H   0  0  0  0  0  0  0  0  0  0  0  0
  -16.6970   64.0860   21.2480 N   0  0  0  0  0  0  0  0  0  0  0  0
  -15.6430   63.4150   21.2680 O   0  0  0  0  0  0  0  0  0  0  0  0
  -17.3260   64.2910   20.0410 O   0  0  0  0  0  0  0  0  0  0  0  0
  1 13  1  6  0  0  0
  1  7  1  0  0  0  0
  1  8  1  0  0  0  0
  2  3  1  0  0  0  0
  2  1  1  0  0  0  0
  3  4  1  0  0  0  0
  4  5  1  1  0  0  0
  4  6  1  0  0  0  0
  7  6  1  0  0  0  0
  8 10  1  6  0  0  0
  9  8  1  6  0  0  0
  9 10  1  0  0  0  0
 11  9  1  0  0  0  0
 12 11  1  0  0  0  0
 14 13  1  0  0  0  0
 15 16  2  0  0  0  0
 15  4  1  0  0  0  0
 17 15  2  0  0  0  0
M  END
>  <REMARK>
 VINA RESULT:      -5.5      4.207      5.167
  4 active torsions:
  status: ('A' for Active; 'I' for Inactive)
    1  A    between atoms: C2_2  and  C3_3 
    2  A    between atoms: N1_5  and  P1_6 
    3  A    between atoms: P1_6  and  O1_7 
    4  A    between atoms: C6_10  and  N2_12 

>  <TORSDO>
F 4

$$$$
../pdbqt/decoy.vina_out.15.pdbqt
 OpenBabel06052021513D

 17 18  0  0  1  0  0  0  0  0999 V2000
  -13.9390   64.8220   19.8690 P   0  0  1  0  0  0  0  0  0  0  0  0
  -13.3900   66.4280   19.7250 O   0  0  0  0  0  0  0  0  0  0  0  0
  -13.3380   66.9950   21.0140 C   0  0  0  0  0  0  0  0  0  0  0  0
  -12.3790   66.2310   21.9620 C   0  0  1  0  0  0  0  0  0  0  0  0
  -12.3120   66.9670   23.3140 C   0  0  0  0  0  0  0  0  0  0  0  0
  -12.9510   64.8030   22.1970 C   0  0  0  0  0  0  0  0  0  0  0  0
  -12.9760   64.0220   21.0220 O   0  0  0  0  0  0  0  0  0  0  0  0
  -15.4530   64.7890   20.3070 N   0  0  2  0  0  0  0  0  0  0  0  0
  -16.5280   64.8170   21.3230 C   0  0  2  0  0  0  0  0  0  0  0  0
  -16.9010   64.6890   20.0040 C   0  0  0  0  0  0  0  0  0  0  0  0
  -16.6870   66.2040   21.9560 C   0  0  0  0  0  0  0  0  0  0  0  0
  -16.1790   66.2010   23.3930 C   0  0  0  0  0  0  0  0  0  0  0  0
  -13.7790   64.0450   18.3760 O   0  0  0  0  0  0  0  0  0  0  0  0
  -13.0970   63.3440   18.5310 H   0  0  0  0  0  0  0  0  0  0  0  0
  -11.0280   66.1910   21.3760 N   0  0  0  0  0  0  0  0  0  0  0  0
  -10.3070   65.1750   21.4680 O   0  0  0  0  0  0  0  0  0  0  0  0
  -10.5120   67.3140   20.7700 O   0  0  0  0  0  0  0  0  0  0  0  0
  1 13  1  6  0  0  0
  1  8  1  0  0  0  0
  1  7  1  0  0  0  0
  2  1  1  0  0  0  0
  2  3  1  0  0  0  0
  3  4  1  0  0  0  0
  4  6  1  0  0  0  0
  4  5  1  1  0  0  0
  7  6  1  0  0  0  0
  8 10  1  1  0  0  0
  9  8  1  6  0  0  0
  9 11  1  0  0  0  0
 10  9  1  0  0  0  0
 11 12  1  0  0  0  0
 13 14  1  0  0  0  0
 15 16  2  0  0  0  0
 15  4  1  0  0  0  0
 17 15  2  0  0  0  0
M  END
>  <REMARK>
 VINA RESULT:      -5.5      7.945      8.686
  4 active torsions:
  status: ('A' for Active; 'I' for Inactive)
    1  A    between atoms: C2_2  and  C3_3 
    2  A    between atoms: N1_5  and  P1_6 
    3  A    between atoms: P1_6  and  O1_7 
    4  A    between atoms: C6_10  and  N2_12 

>  <TORSDO>
F 4

$$$$
../pdbqt/decoy.vina_out.15.pdbqt
 OpenBabel06052021513D

 17 18  0  0  1  0  0  0  0  0999 V2000
  -21.5820   63.7310   25.5150 P   0  0  1  0  0  0  0  0  0  0  0  0
  -21.7760   62.3220   24.5780 O   0  0  0  0  0  0  0  0  0  0  0  0
  -21.5100   62.6460   23.2320 C   0  0  0  0  0  0  0  0  0  0  0  0
  -20.0720   63.1830   23.0210 C   0  0  1  0  0  0  0  0  0  0  0  0
  -19.8370   63.4240   21.5180 C   0  0  0  0  0  0  0  0  0  0  0  0
  -19.9350   64.5380   23.7730 C   0  0  0  0  0  0  0  0  0  0  0  0
  -20.0560   64.4040   25.1730 O   0  0  0  0  0  0  0  0  0  0  0  0
  -22.7210   64.7730   25.1940 N   0  0  2  0  0  0  0  0  0  0  0  0
  -24.1320   65.1430   24.9460 C   0  0  2  0  0  0  0  0  0  0  0  0
  -23.1900   66.1460   24.8910 C   0  0  0  0  0  0  0  0  0  0  0  0
  -24.9810   65.0600   26.2200 C   0  0  0  0  0  0  0  0  0  0  0  0
  -26.4660   65.0900   25.8780 C   0  0  0  0  0  0  0  0  0  0  0  0
  -21.6530   63.3210   27.1530 O   0  0  0  0  0  0  0  0  0  0  0  0
  -21.8420   64.1750   27.6170 H   0  0  0  0  0  0  0  0  0  0  0  0
  -19.0950   62.1890   23.5000 N   0  0  0  0  0  0  0  0  0  0  0  0
  -19.3880   60.9780   23.5910 O   0  0  0  0  0  0  0  0  0  0  0  0
  -17.8520   62.6010   23.9230 O   0  0  0  0  0  0  0  0  0  0  0  0
  1 13  1  1  0  0  0
  2  1  1  0  0  0  0
  3  2  1  0  0  0  0
  4  5  1  6  0  0  0
  4  3  1  0  0  0  0
  4 15  1  0  0  0  0
  4  6  1  0  0  0  0
  6  7  1  0  0  0  0
  7  1  1  0  0  0  0
  8 10  1  6  0  0  0
  8  1  1  0  0  0  0
  9  8  1  1  0  0  0
  9 11  1  0  0  0  0
 10  9  1  0  0  0  0
 12 11  1  0  0  0  0
 13 14  1  0  0  0  0
 15 16  2  0  0  0  0
 15 17  2  0  0  0  0
M  END
>  <REMARK>
 VINA RESULT:      -5.4      3.222      4.878
  4 active torsions:
  status: ('A' for Active; 'I' for Inactive)
    1  A    between atoms: C2_2  and  C3_3 
    2  A    between atoms: N1_5  and  P1_6 
    3  A    between atoms: P1_6  and  O1_7 
    4  A    between atoms: C6_10  and  N2_12 

>  <TORSDO>
F 4

$$$$
../pdbqt/decoy.vina_out.15.pdbqt
 OpenBabel06052021513D

 17 18  0  0  1  0  0  0  0  0999 V2000
  -18.8620   65.9710   23.4270 P   0  0  1  0  0  0  0  0  0  0  0  0
  -20.4030   66.1790   24.1220 O   0  0  0  0  0  0  0  0  0  0  0  0
  -20.2700   66.1030   25.5230 C   0  0  0  0  0  0  0  0  0  0  0  0
  -19.3230   67.1890   26.0920 C   0  0  1  0  0  0  0  0  0  0  0  0
  -19.3070   67.0930   27.6290 C   0  0  0  0  0  0  0  0  0  0  0  0
  -17.8860   66.9220   25.5580 C   0  0  0  0  0  0  0  0  0  0  0  0
  -17.7840   67.0670   24.1580 O   0  0  0  0  0  0  0  0  0  0  0  0
  -18.3560   64.4920   23.6320 N   0  0  2  0  0  0  0  0  0  0  0  0
  -18.3880   63.1710   24.3000 C   0  0  2  0  0  0  0  0  0  0  0  0
  -17.4560   63.3590   23.3040 C   0  0  0  0  0  0  0  0  0  0  0  0
  -19.6440   62.3710   23.9310 C   0  0  0  0  0  0  0  0  0  0  0  0
  -20.4900   62.1000   25.1690 C   0  0  0  0  0  0  0  0  0  0  0  0
  -18.9510   66.3000   21.7710 O   0  0  0  0  0  0  0  0  0  0  0  0
  -19.8680   66.6490   21.6350 H   0  0  0  0  0  0  0  0  0  0  0  0
  -19.8110   68.5250   25.7060 N   0  0  0  0  0  0  0  0  0  0  0  0
  -19.0300   69.4910   25.5700 O   0  0  0  0  0  0  0  0  0  0  0  0
  -21.1610   68.7420   25.5540 O   0  0  0  0  0  0  0  0  0  0  0  0
  1 13  1  6  0  0  0
  1  8  1  0  0  0  0
  1  2  1  0  0  0  0
  1  7  1  0  0  0  0
  2  3  1  0  0  0  0
  3  4  1  0  0  0  0
  4  5  1  1  0  0  0
  6  4  1  0  0  0  0
  7  6  1  0  0  0  0
  8 10  1  1  0  0  0
  9  8  1  6  0  0  0
 10  9  1  0  0  0  0
 11  9  1  0  0  0  0
 11 12  1  0  0  0  0
 14 13  1  0  0  0  0
 15  4  1  0  0  0  0
 16 15  2  0  0  0  0
 17 15  2  0  0  0  0
M  END
>  <REMARK>
 VINA RESULT:      -5.3      2.602      3.341
  4 active torsions:
  status: ('A' for Active; 'I' for Inactive)
    1  A    between atoms: C2_2  and  C3_3 
    2  A    between atoms: N1_5  and  P1_6 
    3  A    between atoms: P1_6  and  O1_7 
    4  A    between atoms: C6_10  and  N2_12 

>  <TORSDO>
F 4

$$$$
../pdbqt/decoy.vina_out.15.pdbqt
 OpenBabel06052021513D

 17 18  0  0  1  0  0  0  0  0999 V2000
  -16.3880   64.1180   21.4620 P   0  0  1  0  0  0  0  0  0  0  0  0
  -15.8730   65.7400   21.3910 O   0  0  0  0  0  0  0  0  0  0  0  0
  -14.6920   65.8630   22.1500 C   0  0  0  0  0  0  0  0  0  0  0  0
  -13.5480   64.9610   21.6240 C   0  0  1  0  0  0  0  0  0  0  0  0
  -12.2750   65.2230   22.4490 C   0  0  0  0  0  0  0  0  0  0  0  0
  -13.9670   63.4730   21.8080 C   0  0  0  0  0  0  0  0  0  0  0  0
  -15.0840   63.1150   21.0240 O   0  0  0  0  0  0  0  0  0  0  0  0
  -16.8890   63.7570   22.9120 N   0  0  2  0  0  0  0  0  0  0  0  0
  -17.9460   63.5820   23.9330 C   0  0  2  0  0  0  0  0  0  0  0  0
  -16.6460   63.3450   24.3160 C   0  0  0  0  0  0  0  0  0  0  0  0
  -18.8200   62.3540   23.6510 C   0  0  0  0  0  0  0  0  0  0  0  0
  -20.0350   62.7390   22.8150 C   0  0  0  0  0  0  0  0  0  0  0  0
  -17.6560   63.8900   20.3670 O   0  0  0  0  0  0  0  0  0  0  0  0
  -18.4670   63.8330   20.9310 H   0  0  0  0  0  0  0  0  0  0  0  0
  -13.2730   65.2810   20.2120 N   0  0  0  0  0  0  0  0  0  0  0  0
  -12.8230   64.4220   19.4240 O   0  0  0  0  0  0  0  0  0  0  0  0
  -13.4470   66.5670   19.7560 O   0  0  0  0  0  0  0  0  0  0  0  0
  1 13  1  6  0  0  0
  1  8  1  0  0  0  0
  2  1  1  0  0  0  0
  2  3  1  0  0  0  0
  4  6  1  0  0  0  0
  4  3  1  0  0  0  0
  4  5  1  1  0  0  0
  7  1  1  0  0  0  0
  7  6  1  0  0  0  0
  8 10  1  1  0  0  0
  9  8  1  6  0  0  0
  9 10  1  0  0  0  0
 11  9  1  0  0  0  0
 12 11  1  0  0  0  0
 13 14  1  0  0  0  0
 15  4  1  0  0  0  0
 16 15  2  0  0  0  0
 17 15  2  0  0  0  0
M  END
>  <REMARK>
 VINA RESULT:      -5.3      6.372      7.323
  4 active torsions:
  status: ('A' for Active; 'I' for Inactive)
    1  A    between atoms: C2_2  and  C3_3 
    2  A    between atoms: N1_5  and  P1_6 
    3  A    between atoms: P1_6  and  O1_7 
    4  A    between atoms: C6_10  and  N2_12 

>  <TORSDO>
F 4

$$$$
../pdbqt/decoy.vina_out.15.pdbqt
 OpenBabel06052021513D

 17 18  0  0  1  0  0  0  0  0999 V2000
  -20.0730   66.6440   24.4070 P   0  0  1  0  0  0  0  0  0  0  0  0
  -20.6990   68.1940   24.7290 O   0  0  0  0  0  0  0  0  0  0  0  0
  -20.9680   68.2850   26.1100 C   0  0  0  0  0  0  0  0  0  0  0  0
  -19.7020   68.0760   26.9790 C   0  0  1  0  0  0  0  0  0  0  0  0
  -20.0650   68.2800   28.4610 C   0  0  0  0  0  0  0  0  0  0  0  0
  -19.2030   66.6140   26.7820 C   0  0  0  0  0  0  0  0  0  0  0  0
  -18.7710   66.3540   25.4640 O   0  0  0  0  0  0  0  0  0  0  0  0
  -21.1860   65.5440   24.6000 N   0  0  2  0  0  0  0  0  0  0  0  0
  -21.6520   64.1400   24.6530 C   0  0  2  0  0  0  0  0  0  0  0  0
  -22.5870   65.1300   24.8550 C   0  0  0  0  0  0  0  0  0  0  0  0
  -21.1370   63.4100   25.8990 C   0  0  0  0  0  0  0  0  0  0  0  0
  -19.9220   62.5550   25.5570 C   0  0  0  0  0  0  0  0  0  0  0  0
  -19.5160   66.5920   22.8120 O   0  0  0  0  0  0  0  0  0  0  0  0
  -19.8850   65.7500   22.4450 H   0  0  0  0  0  0  0  0  0  0  0  0
  -18.6730   69.0600   26.6020 N   0  0  0  0  0  0  0  0  0  0  0  0
  -18.9190   69.9890   25.8040 O   0  0  0  0  0  0  0  0  0  0  0  0
  -17.3900   68.9260   27.0820 O   0  0  0  0  0  0  0  0  0  0  0  0
  1 13  1  6  0  0  0
  1  8  1  0  0  0  0
  1  2  1  0  0  0  0
  1  7  1  0  0  0  0
  2  3  1  0  0  0  0
  3  4  1  0  0  0  0
  4  5  1  1  0  0  0
  6  4  1  0  0  0  0
  7  6  1  0  0  0  0
  8 10  1  6  0  0  0
  9  8  1  1  0  0  0
  9 10  1  0  0  0  0
  9 11  1  0  0  0  0
 12 11  1  0  0  0  0
 14 13  1  0  0  0  0
 15  4  1  0  0  0  0
 15 17  2  0  0  0  0
 16 15  2  0  0  0  0
M  END
>  <REMARK>
 VINA RESULT:      -5.2      1.289      2.217
  4 active torsions:
  status: ('A' for Active; 'I' for Inactive)
    1  A    between atoms: C2_2  and  C3_3 
    2  A    between atoms: N1_5  and  P1_6 
    3  A    between atoms: P1_6  and  O1_7 
    4  A    between atoms: C6_10  and  N2_12 

>  <TORSDO>
F 4

$$$$
../pdbqt/decoy.vina_out.15.pdbqt
 OpenBabel06052021513D

 17 18  0  0  1  0  0  0  0  0999 V2000
  -19.3550   62.1950   23.9160 P   0  0  1  0  0  0  0  0  0  0  0  0
  -19.8220   61.9140   25.5290 O   0  0  0  0  0  0  0  0  0  0  0  0
  -19.9240   63.1590   26.1830 C   0  0  0  0  0  0  0  0  0  0  0  0
  -20.9690   64.0940   25.5250 C   0  0  1  0  0  0  0  0  0  0  0  0
  -21.0810   65.3890   26.3510 C   0  0  0  0  0  0  0  0  0  0  0  0
  -20.4760   64.4550   24.0930 C   0  0  0  0  0  0  0  0  0  0  0  0
  -20.4170   63.3370   23.2340 O   0  0  0  0  0  0  0  0  0  0  0  0
  -17.8720   62.7250   23.8510 N   0  0  2  0  0  0  0  0  0  0  0  0
  -16.6710   63.1860   23.1190 C   0  0  2  0  0  0  0  0  0  0  0  0
  -16.5970   63.1300   24.4920 C   0  0  0  0  0  0  0  0  0  0  0  0
  -16.8750   64.5700   22.4910 C   0  0  0  0  0  0  0  0  0  0  0  0
  -17.6060   64.4530   21.1590 C   0  0  0  0  0  0  0  0  0  0  0  0
  -19.4630   60.7480   23.0480 O   0  0  0  0  0  0  0  0  0  0  0  0
  -19.3570   61.0160   22.1000 H   0  0  0  0  0  0  0  0  0  0  0  0
  -22.2840   63.4310   25.5000 N   0  0  0  0  0  0  0  0  0  0  0  0
  -23.0720   63.5800   24.5420 O   0  0  0  0  0  0  0  0  0  0  0  0
  -22.6930   62.6830   26.5810 O   0  0  0  0  0  0  0  0  0  0  0  0
  1 13  1  6  0  0  0
  1  2  1  0  0  0  0
  2  3  1  0  0  0  0
  4  3  1  0  0  0  0
  4  5  1  1  0  0  0
  6  4  1  0  0  0  0
  7  1  1  0  0  0  0
  7  6  1  0  0  0  0
  8  1  1  0  0  0  0
  8 10  1  6  0  0  0
  9  8  1  1  0  0  0
  9 10  1  0  0  0  0
 11  9  1  0  0  0  0
 12 11  1  0  0  0  0
 14 13  1  0  0  0  0
 15  4  1  0  0  0  0
 15 17  2  0  0  0  0
 16 15  2  0  0  0  0
M  END
>  <REMARK>
 VINA RESULT:      -5.2      4.061      5.835
  4 active torsions:
  status: ('A' for Active; 'I' for Inactive)
    1  A    between atoms: C2_2  and  C3_3 
    2  A    between atoms: N1_5  and  P1_6 
    3  A    between atoms: P1_6  and  O1_7 
    4  A    between atoms: C6_10  and  N2_12 

>  <TORSDO>
F 4

$$$$
../pdbqt/decoy.vina_out.15.pdbqt
 OpenBabel06052021513D

 17 18  0  0  1  0  0  0  0  0999 V2000
  -16.4460   63.6340   22.4250 P   0  0  1  0  0  0  0  0  0  0  0  0
  -16.1220   63.7210   20.7560 O   0  0  0  0  0  0  0  0  0  0  0  0
  -15.7180   65.0370   20.4510 C   0  0  0  0  0  0  0  0  0  0  0  0
  -14.4440   65.4620   21.2220 C   0  0  1  0  0  0  0  0  0  0  0  0
  -14.0220   66.8710   20.7640 C   0  0  0  0  0  0  0  0  0  0  0  0
  -14.7770   65.5080   22.7420 C   0  0  0  0  0  0  0  0  0  0  0  0
  -15.1000   64.2410   23.2710 O   0  0  0  0  0  0  0  0  0  0  0  0
  -17.7350   64.4680   22.7850 N   0  0  2  0  0  0  0  0  0  0  0  0
  -19.1720   64.7930   22.6460 C   0  0  2  0  0  0  0  0  0  0  0  0
  -18.4290   65.5520   23.5210 C   0  0  0  0  0  0  0  0  0  0  0  0
  -20.0690   63.7090   23.2570 C   0  0  0  0  0  0  0  0  0  0  0  0
  -20.5330   62.7280   22.1870 C   0  0  0  0  0  0  0  0  0  0  0  0
  -16.6940   62.0190   22.8590 O   0  0  0  0  0  0  0  0  0  0  0  0
  -17.1230   62.0630   23.7500 H   0  0  0  0  0  0  0  0  0  0  0  0
  -13.3490   64.5210   20.9300 N   0  0  0  0  0  0  0  0  0  0  0  0
  -13.2670   63.9370   19.8280 O   0  0  0  0  0  0  0  0  0  0  0  0
  -12.4270   64.2190   21.9070 O   0  0  0  0  0  0  0  0  0  0  0  0
  1  8  1  0  0  0  0
  1 13  1  1  0  0  0
  1  7  1  0  0  0  0
  2  1  1  0  0  0  0
  3  2  1  0  0  0  0
  3  4  1  0  0  0  0
  4  5  1  6  0  0  0
  4  6  1  0  0  0  0
  6  7  1  0  0  0  0
  8 10  1  6  0  0  0
  9  8  1  6  0  0  0
  9 11  1  0  0  0  0
  9 10  1  0  0  0  0
 12 11  1  0  0  0  0
 13 14  1  0  0  0  0
 15  4  1  0  0  0  0
 15 17  2  0  0  0  0
 16 15  2  0  0  0  0
M  END
>  <REMARK>
 VINA RESULT:      -5.1      6.014      6.916
  4 active torsions:
  status: ('A' for Active; 'I' for Inactive)
    1  A    between atoms: C2_2  and  C3_3 
    2  A    between atoms: N1_5  and  P1_6 
    3  A    between atoms: P1_6  and  O1_7 
    4  A    between atoms: C6_10  and  N2_12 

>  <TORSDO>
F 4

$$$$
