../pdbqt/decoy.vina_out.54.pdbqt
 OpenBabel06052021513D

 30 33  0  0  0  0  0  0  0  0999 V2000
  -21.1250   62.3520   22.5510 C   0  0  0  0  0  0  0  0  0  0  0  0
  -21.0960   63.5260   23.4240 N   0  0  0  0  0  0  0  0  0  0  0  0
  -20.0010   64.2840   23.4360 N   0  0  0  0  0  0  0  0  0  0  0  0
  -19.9150   65.3880   24.2070 C   0  0  0  0  0  0  0  0  0  0  0  0
  -21.0010   65.7430   25.0070 C   0  0  0  0  0  0  0  0  0  0  0  0
  -20.9430   66.8020   25.6910 O   0  0  0  0  0  0  0  0  0  0  0  0
  -22.1180   64.9430   25.0440 N   0  0  0  0  0  0  0  0  0  0  0  0
  -22.1680   63.8420   24.2140 C   0  0  0  0  0  0  0  0  0  0  0  0
  -23.2060   63.1230   24.1610 O   0  0  0  0  0  0  0  0  0  0  0  0
  -23.2450   65.3210   25.9450 C   0  0  0  0  0  0  0  0  0  0  0  0
  -24.4550   65.8090   25.1580 C   0  0  0  0  0  0  0  0  0  0  0  0
  -24.2680   66.7110   24.0930 C   0  0  0  0  0  0  0  0  0  0  0  0
  -25.3610   67.1940   23.3690 C   0  0  0  0  0  0  0  0  0  0  0  0
  -26.6550   66.7910   23.7030 C   0  0  0  0  0  0  0  0  0  0  0  0
  -26.8580   65.9060   24.7640 C   0  0  0  0  0  0  0  0  0  0  0  0
  -25.7680   65.4190   25.4910 C   0  0  0  0  0  0  0  0  0  0  0  0
  -23.5590   64.2540   26.9900 C   0  0  0  0  0  0  0  0  0  0  0  0
  -22.7000   64.1270   28.0970 C   0  0  0  0  0  0  0  0  0  0  0  0
  -22.9400   63.1620   29.0780 C   0  0  0  0  0  0  0  0  0  0  0  0
  -24.0410   62.3090   28.9680 C   0  0  0  0  0  0  0  0  0  0  0  0
  -24.9020   62.4220   27.8740 C   0  0  0  0  0  0  0  0  0  0  0  0
  -24.6670   63.3860   26.8890 C   0  0  0  0  0  0  0  0  0  0  0  0
  -18.4010   66.3580   24.1950 S   0  0  0  0  0  0  0  0  0  0  0  0
  -18.4080   66.6180   22.3850 C   0  0  0  0  0  0  0  0  0  0  0  0
  -17.1770   66.0310   21.7450 C   0  0  0  0  0  0  0  0  0  0  0  0
  -15.8980   66.4800   22.1160 C   0  0  0  0  0  0  0  0  0  0  0  0
  -14.7600   65.9480   21.5020 C   0  0  0  0  0  0  0  0  0  0  0  0
  -14.8900   64.9660   20.5170 C   0  0  0  0  0  0  0  0  0  0  0  0
  -16.1590   64.5090   20.1480 C   0  0  0  0  0  0  0  0  0  0  0  0
  -17.2990   65.0370   20.7600 C   0  0  0  0  0  0  0  0  0  0  0  0
  1  2  1  0  0  0  0
  2  3  1  0  0  0  0
  2  8  1  0  0  0  0
  3  4  2  0  0  0  0
  4  5  1  0  0  0  0
  5  7  1  0  0  0  0
  5  6  2  0  0  0  0
  7 10  1  0  0  0  0
  8  7  1  0  0  0  0
  9  8  2  0  0  0  0
 10 17  1  0  0  0  0
 11 16  1  0  0  0  0
 11 10  1  0  0  0  0
 12 11  2  0  0  0  0
 13 14  2  0  0  0  0
 13 12  1  0  0  0  0
 14 15  1  0  0  0  0
 15 16  2  0  0  0  0
 17 18  1  0  0  0  0
 18 19  2  0  0  0  0
 20 19  1  0  0  0  0
 21 20  2  0  0  0  0
 22 17  2  0  0  0  0
 22 21  1  0  0  0  0
 23  4  1  0  0  0  0
 24 23  1  0  0  0  0
 25 26  1  0  0  0  0
 25 24  1  0  0  0  0
 27 26  2  0  0  0  0
 28 27  1  0  0  0  0
 29 28  2  0  0  0  0
 29 30  1  0  0  0  0
 30 25  2  0  0  0  0
M  END
>  <MODEL>
1

>  <REMARK>
 VINA RESULT:      -9.5      0.000      0.000
  6 active torsions:
  status: ('A' for Active; 'I' for Inactive)
    1  A    between atoms: C2_4  and  S1_5 
    2  A    between atoms: S1_5  and  C3_6 
    3  A    between atoms: C3_6  and  C4_7 
    4  A    between atoms: N3_15  and  C11_16 
    5  A    between atoms: C11_16  and  C12_17 
    6  A    between atoms: C11_16  and  C18_23 

>  <TORSDO>
F 6

$$$$
../pdbqt/decoy.vina_out.54.pdbqt
 OpenBabel06052021513D

 30 33  0  0  0  0  0  0  0  0999 V2000
  -21.0130   63.0140   23.4360 C   0  0  0  0  0  0  0  0  0  0  0  0
  -21.3650   63.8070   24.6130 N   0  0  0  0  0  0  0  0  0  0  0  0
  -20.3870   64.2210   25.4170 N   0  0  0  0  0  0  0  0  0  0  0  0
  -20.6420   64.9690   26.5120 C   0  0  0  0  0  0  0  0  0  0  0  0
  -21.9610   65.3160   26.8040 C   0  0  0  0  0  0  0  0  0  0  0  0
  -22.1980   66.0570   27.7980 O   0  0  0  0  0  0  0  0  0  0  0  0
  -22.9850   64.8530   26.0120 N   0  0  0  0  0  0  0  0  0  0  0  0
  -22.6690   64.1190   24.8880 C   0  0  0  0  0  0  0  0  0  0  0  0
  -23.5740   63.7380   24.0940 O   0  0  0  0  0  0  0  0  0  0  0  0
  -24.3900   65.2000   26.3760 C   0  0  0  0  0  0  0  0  0  0  0  0
  -25.1540   65.7710   25.1880 C   0  0  0  0  0  0  0  0  0  0  0  0
  -24.5470   66.7580   24.3870 C   0  0  0  0  0  0  0  0  0  0  0  0
  -25.2330   67.3170   23.3050 C   0  0  0  0  0  0  0  0  0  0  0  0
  -26.5350   66.9050   23.0130 C   0  0  0  0  0  0  0  0  0  0  0  0
  -27.1530   65.9360   23.8050 C   0  0  0  0  0  0  0  0  0  0  0  0
  -26.4710   65.3730   24.8880 C   0  0  0  0  0  0  0  0  0  0  0  0
  -25.1130   64.0750   27.1100 C   0  0  0  0  0  0  0  0  0  0  0  0
  -24.3710   62.9430   27.4960 C   0  0  0  0  0  0  0  0  0  0  0  0
  -24.9870   61.8820   28.1660 C   0  0  0  0  0  0  0  0  0  0  0  0
  -26.3520   61.9370   28.4590 C   0  0  0  0  0  0  0  0  0  0  0  0
  -27.1010   63.0540   28.0810 C   0  0  0  0  0  0  0  0  0  0  0  0
  -26.4910   64.1180   27.4110 C   0  0  0  0  0  0  0  0  0  0  0  0
  -19.2800   65.4800   27.5700 S   0  0  0  0  0  0  0  0  0  0  0  0
  -18.5970   63.7930   27.7540 C   0  0  0  0  0  0  0  0  0  0  0  0
  -19.1060   63.1340   29.0080 C   0  0  0  0  0  0  0  0  0  0  0  0
  -18.2070   62.5950   29.9450 C   0  0  0  0  0  0  0  0  0  0  0  0
  -18.6860   61.9630   31.0970 C   0  0  0  0  0  0  0  0  0  0  0  0
  -20.0610   61.8650   31.3220 C   0  0  0  0  0  0  0  0  0  0  0  0
  -20.9610   62.4060   30.3990 C   0  0  0  0  0  0  0  0  0  0  0  0
  -20.4870   63.0400   29.2470 C   0  0  0  0  0  0  0  0  0  0  0  0
  1  2  1  0  0  0  0
  2  8  1  0  0  0  0
  2  3  1  0  0  0  0
  3  4  2  0  0  0  0
  4  5  1  0  0  0  0
  4 23  1  0  0  0  0
  5  6  2  0  0  0  0
  7 10  1  0  0  0  0
  7  5  1  0  0  0  0
  8  7  1  0  0  0  0
  9  8  2  0  0  0  0
 10 17  1  0  0  0  0
 11 10  1  0  0  0  0
 12 11  2  0  0  0  0
 13 12  1  0  0  0  0
 14 13  2  0  0  0  0
 14 15  1  0  0  0  0
 15 16  2  0  0  0  0
 16 11  1  0  0  0  0
 17 22  2  0  0  0  0
 17 18  1  0  0  0  0
 18 19  2  0  0  0  0
 19 20  1  0  0  0  0
 21 20  2  0  0  0  0
 22 21  1  0  0  0  0
 23 24  1  0  0  0  0
 24 25  1  0  0  0  0
 25 30  2  0  0  0  0
 25 26  1  0  0  0  0
 26 27  2  0  0  0  0
 27 28  1  0  0  0  0
 29 28  2  0  0  0  0
 30 29  1  0  0  0  0
M  END
>  <REMARK>
 VINA RESULT:      -9.4      3.188      5.006
  6 active torsions:
  status: ('A' for Active; 'I' for Inactive)
    1  A    between atoms: C2_4  and  S1_5 
    2  A    between atoms: S1_5  and  C3_6 
    3  A    between atoms: C3_6  and  C4_7 
    4  A    between atoms: N3_15  and  C11_16 
    5  A    between atoms: C11_16  and  C12_17 
    6  A    between atoms: C11_16  and  C18_23 

>  <TORSDO>
F 6

$$$$
../pdbqt/decoy.vina_out.54.pdbqt
 OpenBabel06052021513D

 30 33  0  0  0  0  0  0  0  0999 V2000
  -21.0010   62.2500   22.6490 C   0  0  0  0  0  0  0  0  0  0  0  0
  -20.7270   63.5130   23.3330 N   0  0  0  0  0  0  0  0  0  0  0  0
  -19.6300   64.1920   23.0010 N   0  0  0  0  0  0  0  0  0  0  0  0
  -19.3270   65.3720   23.5830 C   0  0  0  0  0  0  0  0  0  0  0  0
  -20.1850   65.8900   24.5530 C   0  0  0  0  0  0  0  0  0  0  0  0
  -19.9300   67.0170   25.0620 O   0  0  0  0  0  0  0  0  0  0  0  0
  -21.2930   65.1770   24.9420 N   0  0  0  0  0  0  0  0  0  0  0  0
  -21.5750   63.9920   24.2950 C   0  0  0  0  0  0  0  0  0  0  0  0
  -22.6240   63.3430   24.5700 O   0  0  0  0  0  0  0  0  0  0  0  0
  -22.1670   65.7330   26.0160 C   0  0  0  0  0  0  0  0  0  0  0  0
  -23.6300   65.7620   25.5910 C   0  0  0  0  0  0  0  0  0  0  0  0
  -24.0110   66.5380   24.4790 C   0  0  0  0  0  0  0  0  0  0  0  0
  -25.3490   66.6020   24.0820 C   0  0  0  0  0  0  0  0  0  0  0  0
  -26.3250   65.9010   24.7930 C   0  0  0  0  0  0  0  0  0  0  0  0
  -25.9650   65.1370   25.9040 C   0  0  0  0  0  0  0  0  0  0  0  0
  -24.6270   65.0680   26.3050 C   0  0  0  0  0  0  0  0  0  0  0  0
  -21.9170   65.0970   27.3800 C   0  0  0  0  0  0  0  0  0  0  0  0
  -22.1120   65.8830   28.5310 C   0  0  0  0  0  0  0  0  0  0  0  0
  -21.8910   65.3500   29.8030 C   0  0  0  0  0  0  0  0  0  0  0  0
  -21.4720   64.0240   29.9440 C   0  0  0  0  0  0  0  0  0  0  0  0
  -21.2730   63.2320   28.8110 C   0  0  0  0  0  0  0  0  0  0  0  0
  -21.4930   63.7600   27.5360 C   0  0  0  0  0  0  0  0  0  0  0  0
  -17.8200   66.2300   23.1060 S   0  0  0  0  0  0  0  0  0  0  0  0
  -17.5690   65.2510   21.5820 C   0  0  0  0  0  0  0  0  0  0  0  0
  -16.1870   65.4570   21.0230 C   0  0  0  0  0  0  0  0  0  0  0  0
  -15.3290   66.4220   21.5790 C   0  0  0  0  0  0  0  0  0  0  0  0
  -14.0550   66.6250   21.0410 C   0  0  0  0  0  0  0  0  0  0  0  0
  -13.6280   65.8680   19.9470 C   0  0  0  0  0  0  0  0  0  0  0  0
  -14.4710   64.9000   19.3940 C   0  0  0  0  0  0  0  0  0  0  0  0
  -15.7450   64.6920   19.9300 C   0  0  0  0  0  0  0  0  0  0  0  0
  1  2  1  0  0  0  0
  2  8  1  0  0  0  0
  3  2  1  0  0  0  0
  3  4  2  0  0  0  0
  4  5  1  0  0  0  0
  5  7  1  0  0  0  0
  5  6  2  0  0  0  0
  7 10  1  0  0  0  0
  8  9  2  0  0  0  0
  8  7  1  0  0  0  0
 10 17  1  0  0  0  0
 11 10  1  0  0  0  0
 11 16  2  0  0  0  0
 12 11  1  0  0  0  0
 13 12  2  0  0  0  0
 13 14  1  0  0  0  0
 14 15  2  0  0  0  0
 15 16  1  0  0  0  0
 17 22  2  0  0  0  0
 17 18  1  0  0  0  0
 18 19  2  0  0  0  0
 19 20  1  0  0  0  0
 21 20  2  0  0  0  0
 22 21  1  0  0  0  0
 23  4  1  0  0  0  0
 24 23  1  0  0  0  0
 25 26  2  0  0  0  0
 25 24  1  0  0  0  0
 27 26  1  0  0  0  0
 28 27  2  0  0  0  0
 29 30  2  0  0  0  0
 29 28  1  0  0  0  0
 30 25  1  0  0  0  0
M  END
>  <REMARK>
 VINA RESULT:      -9.4      1.253      1.661
  6 active torsions:
  status: ('A' for Active; 'I' for Inactive)
    1  A    between atoms: C2_4  and  S1_5 
    2  A    between atoms: S1_5  and  C3_6 
    3  A    between atoms: C3_6  and  C4_7 
    4  A    between atoms: N3_15  and  C11_16 
    5  A    between atoms: C11_16  and  C12_17 
    6  A    between atoms: C11_16  and  C18_23 

>  <TORSDO>
F 6

$$$$
../pdbqt/decoy.vina_out.54.pdbqt
 OpenBabel06052021513D

 30 33  0  0  0  0  0  0  0  0999 V2000
  -20.1940   66.5580   27.3630 C   0  0  0  0  0  0  0  0  0  0  0  0
  -20.8000   65.6850   26.3580 N   0  0  0  0  0  0  0  0  0  0  0  0
  -20.0260   65.1950   25.3910 N   0  0  0  0  0  0  0  0  0  0  0  0
  -20.5180   64.3720   24.4410 C   0  0  0  0  0  0  0  0  0  0  0  0
  -21.8690   64.0260   24.4780 C   0  0  0  0  0  0  0  0  0  0  0  0
  -22.3210   63.2170   23.6210 O   0  0  0  0  0  0  0  0  0  0  0  0
  -22.6900   64.5640   25.4390 N   0  0  0  0  0  0  0  0  0  0  0  0
  -22.1320   65.3750   26.4050 C   0  0  0  0  0  0  0  0  0  0  0  0
  -22.8380   65.8290   27.3490 O   0  0  0  0  0  0  0  0  0  0  0  0
  -24.1410   64.2140   25.4250 C   0  0  0  0  0  0  0  0  0  0  0  0
  -24.6110   63.7070   26.7830 C   0  0  0  0  0  0  0  0  0  0  0  0
  -24.0330   62.5410   27.3220 C   0  0  0  0  0  0  0  0  0  0  0  0
  -24.4600   62.0390   28.5530 C   0  0  0  0  0  0  0  0  0  0  0  0
  -25.4750   62.6880   29.2600 C   0  0  0  0  0  0  0  0  0  0  0  0
  -26.0650   63.8380   28.7330 C   0  0  0  0  0  0  0  0  0  0  0  0
  -25.6410   64.3450   27.5010 C   0  0  0  0  0  0  0  0  0  0  0  0
  -25.0150   65.3100   24.8230 C   0  0  0  0  0  0  0  0  0  0  0  0
  -26.4100   65.2170   24.9810 C   0  0  0  0  0  0  0  0  0  0  0  0
  -27.2550   66.1910   24.4440 C   0  0  0  0  0  0  0  0  0  0  0  0
  -26.7190   67.2730   23.7420 C   0  0  0  0  0  0  0  0  0  0  0  0
  -25.3360   67.3790   23.5750 C   0  0  0  0  0  0  0  0  0  0  0  0
  -24.4860   66.4070   24.1100 C   0  0  0  0  0  0  0  0  0  0  0  0
  -19.4260   63.7610   23.1490 S   0  0  0  0  0  0  0  0  0  0  0  0
  -18.9730   65.4250   22.5410 C   0  0  0  0  0  0  0  0  0  0  0  0
  -17.5990   65.4250   21.9250 C   0  0  0  0  0  0  0  0  0  0  0  0
  -16.6150   66.3200   22.3790 C   0  0  0  0  0  0  0  0  0  0  0  0
  -15.3480   66.3310   21.7880 C   0  0  0  0  0  0  0  0  0  0  0  0
  -15.0540   65.4510   20.7430 C   0  0  0  0  0  0  0  0  0  0  0  0
  -16.0250   64.5520   20.2930 C   0  0  0  0  0  0  0  0  0  0  0  0
  -17.2930   64.5360   20.8810 C   0  0  0  0  0  0  0  0  0  0  0  0
  2  8  1  0  0  0  0
  2  1  1  0  0  0  0
  3  2  1  0  0  0  0
  4  5  1  0  0  0  0
  4  3  2  0  0  0  0
  5  7  1  0  0  0  0
  6  5  2  0  0  0  0
  7  8  1  0  0  0  0
  8  9  2  0  0  0  0
 10  7  1  0  0  0  0
 10 11  1  0  0  0  0
 11 12  2  0  0  0  0
 11 16  1  0  0  0  0
 12 13  1  0  0  0  0
 13 14  2  0  0  0  0
 15 14  1  0  0  0  0
 16 15  2  0  0  0  0
 17 18  1  0  0  0  0
 17 10  1  0  0  0  0
 19 18  2  0  0  0  0
 20 19  1  0  0  0  0
 21 20  2  0  0  0  0
 21 22  1  0  0  0  0
 22 17  2  0  0  0  0
 23  4  1  0  0  0  0
 24 23  1  0  0  0  0
 25 26  1  0  0  0  0
 25 24  1  0  0  0  0
 27 26  2  0  0  0  0
 28 27  1  0  0  0  0
 29 28  2  0  0  0  0
 29 30  1  0  0  0  0
 30 25  2  0  0  0  0
M  END
>  <REMARK>
 VINA RESULT:      -9.3      1.418      4.042
  6 active torsions:
  status: ('A' for Active; 'I' for Inactive)
    1  A    between atoms: C2_4  and  S1_5 
    2  A    between atoms: S1_5  and  C3_6 
    3  A    between atoms: C3_6  and  C4_7 
    4  A    between atoms: N3_15  and  C11_16 
    5  A    between atoms: C11_16  and  C12_17 
    6  A    between atoms: C11_16  and  C18_23 

>  <TORSDO>
F 6

$$$$
../pdbqt/decoy.vina_out.54.pdbqt
 OpenBabel06052021513D

 30 33  0  0  0  0  0  0  0  0999 V2000
  -20.5640   61.9730   25.1320 C   0  0  0  0  0  0  0  0  0  0  0  0
  -21.0180   62.9580   26.1140 N   0  0  0  0  0  0  0  0  0  0  0  0
  -20.1280   63.4620   26.9680 N   0  0  0  0  0  0  0  0  0  0  0  0
  -20.4780   64.3860   27.8890 C   0  0  0  0  0  0  0  0  0  0  0  0
  -21.8020   64.8220   27.9420 C   0  0  0  0  0  0  0  0  0  0  0  0
  -22.1200   65.7220   28.7680 O   0  0  0  0  0  0  0  0  0  0  0  0
  -22.7400   64.2740   27.1020 N   0  0  0  0  0  0  0  0  0  0  0  0
  -22.3260   63.3570   26.1590 C   0  0  0  0  0  0  0  0  0  0  0  0
  -23.1430   62.8850   25.3190 O   0  0  0  0  0  0  0  0  0  0  0  0
  -24.1580   64.7250   27.2150 C   0  0  0  0  0  0  0  0  0  0  0  0
  -24.6330   65.4140   25.9410 C   0  0  0  0  0  0  0  0  0  0  0  0
  -23.7370   66.2310   25.2250 C   0  0  0  0  0  0  0  0  0  0  0  0
  -24.1510   66.8950   24.0670 C   0  0  0  0  0  0  0  0  0  0  0  0
  -25.4640   66.7590   23.6130 C   0  0  0  0  0  0  0  0  0  0  0  0
  -26.3670   65.9610   24.3190 C   0  0  0  0  0  0  0  0  0  0  0  0
  -25.9580   65.2950   25.4780 C   0  0  0  0  0  0  0  0  0  0  0  0
  -25.0940   63.6350   27.7290 C   0  0  0  0  0  0  0  0  0  0  0  0
  -26.4820   63.8570   27.6630 C   0  0  0  0  0  0  0  0  0  0  0  0
  -27.3810   62.8930   28.1260 C   0  0  0  0  0  0  0  0  0  0  0  0
  -26.9070   61.6930   28.6610 C   0  0  0  0  0  0  0  0  0  0  0  0
  -25.5320   61.4580   28.7350 C   0  0  0  0  0  0  0  0  0  0  0  0
  -24.6270   62.4190   28.2740 C   0  0  0  0  0  0  0  0  0  0  0  0
  -19.2350   65.0120   29.0270 S   0  0  0  0  0  0  0  0  0  0  0  0
  -18.3200   65.9450   27.7470 C   0  0  0  0  0  0  0  0  0  0  0  0
  -19.2180   66.9260   27.0420 C   0  0  0  0  0  0  0  0  0  0  0  0
  -19.8130   67.9850   27.7500 C   0  0  0  0  0  0  0  0  0  0  0  0
  -20.6640   68.8800   27.0950 C   0  0  0  0  0  0  0  0  0  0  0  0
  -20.9270   68.7250   25.7320 C   0  0  0  0  0  0  0  0  0  0  0  0
  -20.3330   67.6800   25.0190 C   0  0  0  0  0  0  0  0  0  0  0  0
  -19.4800   66.7840   25.6690 C   0  0  0  0  0  0  0  0  0  0  0  0
  1  2  1  0  0  0  0
  2  8  1  0  0  0  0
  2  3  1  0  0  0  0
  3  4  2  0  0  0  0
  4  5  1  0  0  0  0
  4 23  1  0  0  0  0
  5  6  2  0  0  0  0
  7 10  1  0  0  0  0
  7  5  1  0  0  0  0
  8  7  1  0  0  0  0
  9  8  2  0  0  0  0
 10 17  1  0  0  0  0
 11 10  1  0  0  0  0
 12 11  2  0  0  0  0
 13 12  1  0  0  0  0
 14 13  2  0  0  0  0
 14 15  1  0  0  0  0
 15 16  2  0  0  0  0
 16 11  1  0  0  0  0
 17 22  1  0  0  0  0
 18 17  2  0  0  0  0
 18 19  1  0  0  0  0
 19 20  2  0  0  0  0
 20 21  1  0  0  0  0
 22 21  2  0  0  0  0
 24 23  1  0  0  0  0
 25 24  1  0  0  0  0
 25 26  2  0  0  0  0
 27 26  1  0  0  0  0
 28 27  2  0  0  0  0
 29 30  2  0  0  0  0
 29 28  1  0  0  0  0
 30 25  1  0  0  0  0
M  END
>  <REMARK>
 VINA RESULT:      -9.1      3.275      4.123
  6 active torsions:
  status: ('A' for Active; 'I' for Inactive)
    1  A    between atoms: C2_4  and  S1_5 
    2  A    between atoms: S1_5  and  C3_6 
    3  A    between atoms: C3_6  and  C4_7 
    4  A    between atoms: N3_15  and  C11_16 
    5  A    between atoms: C11_16  and  C12_17 
    6  A    between atoms: C11_16  and  C18_23 

>  <TORSDO>
F 6

$$$$
../pdbqt/decoy.vina_out.54.pdbqt
 OpenBabel06052021513D

 30 33  0  0  0  0  0  0  0  0999 V2000
  -19.5550   65.8160   27.6810 C   0  0  0  0  0  0  0  0  0  0  0  0
  -20.6230   65.2670   26.8450 N   0  0  0  0  0  0  0  0  0  0  0  0
  -20.2870   64.5540   25.7720 N   0  0  0  0  0  0  0  0  0  0  0  0
  -21.2220   64.0070   24.9660 C   0  0  0  0  0  0  0  0  0  0  0  0
  -22.5710   64.1920   25.2700 C   0  0  0  0  0  0  0  0  0  0  0  0
  -23.4460   63.6400   24.5480 O   0  0  0  0  0  0  0  0  0  0  0  0
  -22.9330   64.9680   26.3450 N   0  0  0  0  0  0  0  0  0  0  0  0
  -21.9390   65.4780   27.1540 C   0  0  0  0  0  0  0  0  0  0  0  0
  -22.2300   66.1340   28.1940 O   0  0  0  0  0  0  0  0  0  0  0  0
  -24.3830   65.1890   26.6180 C   0  0  0  0  0  0  0  0  0  0  0  0
  -25.1090   65.7300   25.3930 C   0  0  0  0  0  0  0  0  0  0  0  0
  -24.4530   66.6510   24.5520 C   0  0  0  0  0  0  0  0  0  0  0  0
  -25.1030   67.1820   23.4360 C   0  0  0  0  0  0  0  0  0  0  0  0
  -26.4170   66.8100   23.1470 C   0  0  0  0  0  0  0  0  0  0  0  0
  -27.0850   65.9080   23.9770 C   0  0  0  0  0  0  0  0  0  0  0  0
  -26.4390   65.3720   25.0950 C   0  0  0  0  0  0  0  0  0  0  0  0
  -25.0580   63.9880   27.2730 C   0  0  0  0  0  0  0  0  0  0  0  0
  -26.4570   64.0100   27.4330 C   0  0  0  0  0  0  0  0  0  0  0  0
  -27.1220   62.9380   28.0320 C   0  0  0  0  0  0  0  0  0  0  0  0
  -26.4020   61.8280   28.4800 C   0  0  0  0  0  0  0  0  0  0  0  0
  -25.0140   61.7910   28.3290 C   0  0  0  0  0  0  0  0  0  0  0  0
  -24.3420   62.8610   27.7310 C   0  0  0  0  0  0  0  0  0  0  0  0
  -20.7050   63.0720   23.5190 S   0  0  0  0  0  0  0  0  0  0  0  0
  -18.9330   63.0720   23.9710 C   0  0  0  0  0  0  0  0  0  0  0  0
  -18.0990   63.7330   22.9060 C   0  0  0  0  0  0  0  0  0  0  0  0
  -16.7430   63.3960   22.7500 C   0  0  0  0  0  0  0  0  0  0  0  0
  -15.9680   64.0300   21.7740 C   0  0  0  0  0  0  0  0  0  0  0  0
  -16.5390   65.0020   20.9480 C   0  0  0  0  0  0  0  0  0  0  0  0
  -17.8880   65.3370   21.0920 C   0  0  0  0  0  0  0  0  0  0  0  0
  -18.6670   64.7050   22.0650 C   0  0  0  0  0  0  0  0  0  0  0  0
  2  8  1  0  0  0  0
  2  1  1  0  0  0  0
  3  2  1  0  0  0  0
  4  5  1  0  0  0  0
  4  3  2  0  0  0  0
  5  7  1  0  0  0  0
  6  5  2  0  0  0  0
  7 10  1  0  0  0  0
  7  8  1  0  0  0  0
  8  9  2  0  0  0  0
 10 17  1  0  0  0  0
 11 10  1  0  0  0  0
 12 11  2  0  0  0  0
 13 12  1  0  0  0  0
 14 13  2  0  0  0  0
 14 15  1  0  0  0  0
 15 16  2  0  0  0  0
 16 11  1  0  0  0  0
 17 18  2  0  0  0  0
 17 22  1  0  0  0  0
 18 19  1  0  0  0  0
 19 20  2  0  0  0  0
 21 20  1  0  0  0  0
 22 21  2  0  0  0  0
 23 24  1  0  0  0  0
 23  4  1  0  0  0  0
 25 24  1  0  0  0  0
 26 25  1  0  0  0  0
 27 26  2  0  0  0  0
 28 29  2  0  0  0  0
 28 27  1  0  0  0  0
 29 30  1  0  0  0  0
 30 25  2  0  0  0  0
M  END
>  <REMARK>
 VINA RESULT:      -9.1      1.814      2.841
  6 active torsions:
  status: ('A' for Active; 'I' for Inactive)
    1  A    between atoms: C2_4  and  S1_5 
    2  A    between atoms: S1_5  and  C3_6 
    3  A    between atoms: C3_6  and  C4_7 
    4  A    between atoms: N3_15  and  C11_16 
    5  A    between atoms: C11_16  and  C12_17 
    6  A    between atoms: C11_16  and  C18_23 

>  <TORSDO>
F 6

$$$$
../pdbqt/decoy.vina_out.54.pdbqt
 OpenBabel06052021513D

 30 33  0  0  0  0  0  0  0  0999 V2000
  -19.9230   68.1900   25.5160 C   0  0  0  0  0  0  0  0  0  0  0  0
  -20.3230   66.8250   25.1750 N   0  0  0  0  0  0  0  0  0  0  0  0
  -19.6960   66.2100   24.1730 N   0  0  0  0  0  0  0  0  0  0  0  0
  -20.0070   64.9450   23.8160 C   0  0  0  0  0  0  0  0  0  0  0  0
  -21.0050   64.2690   24.5180 C   0  0  0  0  0  0  0  0  0  0  0  0
  -21.2610   63.0700   24.2200 O   0  0  0  0  0  0  0  0  0  0  0  0
  -21.6940   64.9080   25.5200 N   0  0  0  0  0  0  0  0  0  0  0  0
  -21.3180   66.1890   25.8660 C   0  0  0  0  0  0  0  0  0  0  0  0
  -21.8750   66.7840   26.8310 O   0  0  0  0  0  0  0  0  0  0  0  0
  -22.7890   64.1750   26.2200 C   0  0  0  0  0  0  0  0  0  0  0  0
  -22.5230   64.0620   27.7170 C   0  0  0  0  0  0  0  0  0  0  0  0
  -21.4720   63.2410   28.1700 C   0  0  0  0  0  0  0  0  0  0  0  0
  -21.2200   63.0980   29.5370 C   0  0  0  0  0  0  0  0  0  0  0  0
  -22.0170   63.7660   30.4690 C   0  0  0  0  0  0  0  0  0  0  0  0
  -23.0690   64.5740   30.0350 C   0  0  0  0  0  0  0  0  0  0  0  0
  -23.3250   64.7200   28.6690 C   0  0  0  0  0  0  0  0  0  0  0  0
  -24.1790   64.6950   25.8640 C   0  0  0  0  0  0  0  0  0  0  0  0
  -24.2960   65.6320   24.8210 C   0  0  0  0  0  0  0  0  0  0  0  0
  -25.5450   66.1440   24.4600 C   0  0  0  0  0  0  0  0  0  0  0  0
  -26.6950   65.7260   25.1350 C   0  0  0  0  0  0  0  0  0  0  0  0
  -26.5950   64.7970   26.1730 C   0  0  0  0  0  0  0  0  0  0  0  0
  -25.3470   64.2820   26.5390 C   0  0  0  0  0  0  0  0  0  0  0  0
  -19.1390   64.1780   22.4410 S   0  0  0  0  0  0  0  0  0  0  0  0
  -18.5370   65.7590   21.7470 C   0  0  0  0  0  0  0  0  0  0  0  0
  -17.1110   65.6400   21.2780 C   0  0  0  0  0  0  0  0  0  0  0  0
  -16.7750   64.7660   20.2300 C   0  0  0  0  0  0  0  0  0  0  0  0
  -15.4460   64.6430   19.8150 C   0  0  0  0  0  0  0  0  0  0  0  0
  -14.4440   65.3890   20.4400 C   0  0  0  0  0  0  0  0  0  0  0  0
  -14.7710   66.2670   21.4780 C   0  0  0  0  0  0  0  0  0  0  0  0
  -16.0990   66.3950   21.8950 C   0  0  0  0  0  0  0  0  0  0  0  0
  2  1  1  0  0  0  0
  2  8  1  0  0  0  0
  3  2  1  0  0  0  0
  4  3  2  0  0  0  0
  4  5  1  0  0  0  0
  5  7  1  0  0  0  0
  6  5  2  0  0  0  0
  7  8  1  0  0  0  0
  7 10  1  0  0  0  0
  8  9  2  0  0  0  0
 10 11  1  0  0  0  0
 11 12  2  0  0  0  0
 11 16  1  0  0  0  0
 12 13  1  0  0  0  0
 13 14  2  0  0  0  0
 15 14  1  0  0  0  0
 16 15  2  0  0  0  0
 17 10  1  0  0  0  0
 17 22  2  0  0  0  0
 18 17  1  0  0  0  0
 19 18  2  0  0  0  0
 19 20  1  0  0  0  0
 20 21  2  0  0  0  0
 21 22  1  0  0  0  0
 23  4  1  0  0  0  0
 24 23  1  0  0  0  0
 25 24  1  0  0  0  0
 25 30  2  0  0  0  0
 26 25  1  0  0  0  0
 27 26  2  0  0  0  0
 27 28  1  0  0  0  0
 28 29  2  0  0  0  0
 29 30  1  0  0  0  0
M  END
>  <REMARK>
 VINA RESULT:      -9.0      1.482      4.118
  6 active torsions:
  status: ('A' for Active; 'I' for Inactive)
    1  A    between atoms: C2_4  and  S1_5 
    2  A    between atoms: S1_5  and  C3_6 
    3  A    between atoms: C3_6  and  C4_7 
    4  A    between atoms: N3_15  and  C11_16 
    5  A    between atoms: C11_16  and  C12_17 
    6  A    between atoms: C11_16  and  C18_23 

>  <TORSDO>
F 6

$$$$
../pdbqt/decoy.vina_out.54.pdbqt
 OpenBabel06052021513D

 30 33  0  0  0  0  0  0  0  0999 V2000
  -21.0120   62.9240   23.3190 C   0  0  0  0  0  0  0  0  0  0  0  0
  -21.2990   63.7810   24.4680 N   0  0  0  0  0  0  0  0  0  0  0  0
  -20.2770   64.2630   25.1740 N   0  0  0  0  0  0  0  0  0  0  0  0
  -20.4720   65.0720   26.2370 C   0  0  0  0  0  0  0  0  0  0  0  0
  -21.7750   65.4120   26.6010 C   0  0  0  0  0  0  0  0  0  0  0  0
  -21.9580   66.2080   27.5630 O   0  0  0  0  0  0  0  0  0  0  0  0
  -22.8400   64.8820   25.9140 N   0  0  0  0  0  0  0  0  0  0  0  0
  -22.5870   64.0860   24.8170 C   0  0  0  0  0  0  0  0  0  0  0  0
  -23.5370   63.6390   24.1130 O   0  0  0  0  0  0  0  0  0  0  0  0
  -24.2240   65.2240   26.3550 C   0  0  0  0  0  0  0  0  0  0  0  0
  -25.0430   65.8280   25.2210 C   0  0  0  0  0  0  0  0  0  0  0  0
  -26.3700   65.4000   25.0240 C   0  0  0  0  0  0  0  0  0  0  0  0
  -27.1370   65.9180   23.9780 C   0  0  0  0  0  0  0  0  0  0  0  0
  -26.5880   66.8630   23.1090 C   0  0  0  0  0  0  0  0  0  0  0  0
  -25.2700   67.2890   23.2840 C   0  0  0  0  0  0  0  0  0  0  0  0
  -24.4990   66.7740   24.3300 C   0  0  0  0  0  0  0  0  0  0  0  0
  -24.9150   64.0830   27.0950 C   0  0  0  0  0  0  0  0  0  0  0  0
  -24.1460   62.9670   27.4730 C   0  0  0  0  0  0  0  0  0  0  0  0
  -24.7330   61.8920   28.1470 C   0  0  0  0  0  0  0  0  0  0  0  0
  -26.0950   61.9170   28.4530 C   0  0  0  0  0  0  0  0  0  0  0  0
  -26.8720   63.0180   28.0830 C   0  0  0  0  0  0  0  0  0  0  0  0
  -26.2910   64.0950   27.4090 C   0  0  0  0  0  0  0  0  0  0  0  0
  -19.0510   65.6720   27.1620 S   0  0  0  0  0  0  0  0  0  0  0  0
  -18.6020   64.0280   27.8240 C   0  0  0  0  0  0  0  0  0  0  0  0
  -17.2010   63.6440   27.4260 C   0  0  0  0  0  0  0  0  0  0  0  0
  -16.7520   63.8530   26.1110 C   0  0  0  0  0  0  0  0  0  0  0  0
  -15.4580   63.4730   25.7400 C   0  0  0  0  0  0  0  0  0  0  0  0
  -14.6050   62.8850   26.6780 C   0  0  0  0  0  0  0  0  0  0  0  0
  -15.0430   62.6820   27.9900 C   0  0  0  0  0  0  0  0  0  0  0  0
  -16.3340   63.0610   28.3650 C   0  0  0  0  0  0  0  0  0  0  0  0
  1  2  1  0  0  0  0
  2  8  1  0  0  0  0
  2  3  1  0  0  0  0
  3  4  2  0  0  0  0
  4  5  1  0  0  0  0
  4 23  1  0  0  0  0
  5  6  2  0  0  0  0
  7 10  1  0  0  0  0
  7  5  1  0  0  0  0
  8  7  1  0  0  0  0
  9  8  2  0  0  0  0
 10 17  1  0  0  0  0
 11 10  1  0  0  0  0
 12 11  1  0  0  0  0
 13 12  2  0  0  0  0
 14 15  2  0  0  0  0
 14 13  1  0  0  0  0
 15 16  1  0  0  0  0
 16 11  2  0  0  0  0
 17 22  2  0  0  0  0
 17 18  1  0  0  0  0
 18 19  2  0  0  0  0
 19 20  1  0  0  0  0
 21 20  2  0  0  0  0
 22 21  1  0  0  0  0
 23 24  1  0  0  0  0
 25 24  1  0  0  0  0
 25 30  2  0  0  0  0
 26 25  1  0  0  0  0
 27 26  2  0  0  0  0
 27 28  1  0  0  0  0
 28 29  2  0  0  0  0
 29 30  1  0  0  0  0
M  END
>  <REMARK>
 VINA RESULT:      -8.7      2.791      3.524
  6 active torsions:
  status: ('A' for Active; 'I' for Inactive)
    1  A    between atoms: C2_4  and  S1_5 
    2  A    between atoms: S1_5  and  C3_6 
    3  A    between atoms: C3_6  and  C4_7 
    4  A    between atoms: N3_15  and  C11_16 
    5  A    between atoms: C11_16  and  C12_17 
    6  A    between atoms: C11_16  and  C18_23 

>  <TORSDO>
F 6

$$$$
../pdbqt/decoy.vina_out.54.pdbqt
 OpenBabel06052021513D

 30 33  0  0  0  0  0  0  0  0999 V2000
  -20.4840   61.9490   25.0870 C   0  0  0  0  0  0  0  0  0  0  0  0
  -20.8160   62.8260   26.2100 N   0  0  0  0  0  0  0  0  0  0  0  0
  -19.8660   63.1030   27.1030 N   0  0  0  0  0  0  0  0  0  0  0  0
  -20.1020   63.9170   28.1540 C   0  0  0  0  0  0  0  0  0  0  0  0
  -21.3690   64.4800   28.3050 C   0  0  0  0  0  0  0  0  0  0  0  0
  -21.5770   65.2810   29.2580 O   0  0  0  0  0  0  0  0  0  0  0  0
  -22.3720   64.1630   27.4210 N   0  0  0  0  0  0  0  0  0  0  0  0
  -22.0720   63.3520   26.3460 C   0  0  0  0  0  0  0  0  0  0  0  0
  -22.9450   63.0960   25.4700 O   0  0  0  0  0  0  0  0  0  0  0  0
  -23.7300   64.7430   27.6340 C   0  0  0  0  0  0  0  0  0  0  0  0
  -24.2880   65.3540   26.3550 C   0  0  0  0  0  0  0  0  0  0  0  0
  -25.6240   65.0940   25.9920 C   0  0  0  0  0  0  0  0  0  0  0  0
  -26.1560   65.6210   24.8120 C   0  0  0  0  0  0  0  0  0  0  0  0
  -25.3600   66.4060   23.9750 C   0  0  0  0  0  0  0  0  0  0  0  0
  -24.0310   66.6630   24.3160 C   0  0  0  0  0  0  0  0  0  0  0  0
  -23.4950   66.1380   25.4950 C   0  0  0  0  0  0  0  0  0  0  0  0
  -24.6830   63.7870   28.3460 C   0  0  0  0  0  0  0  0  0  0  0  0
  -25.2790   64.2080   29.5490 C   0  0  0  0  0  0  0  0  0  0  0  0
  -26.1550   63.3680   30.2430 C   0  0  0  0  0  0  0  0  0  0  0  0
  -26.4470   62.0960   29.7450 C   0  0  0  0  0  0  0  0  0  0  0  0
  -25.8620   61.6630   28.5530 C   0  0  0  0  0  0  0  0  0  0  0  0
  -24.9850   62.4990   27.8540 C   0  0  0  0  0  0  0  0  0  0  0  0
  -18.7850   64.2350   29.3370 S   0  0  0  0  0  0  0  0  0  0  0  0
  -18.8910   62.5870   30.1220 C   0  0  0  0  0  0  0  0  0  0  0  0
  -19.4550   62.6830   31.5150 C   0  0  0  0  0  0  0  0  0  0  0  0
  -20.3560   63.7080   31.8510 C   0  0  0  0  0  0  0  0  0  0  0  0
  -20.8590   63.8060   33.1520 C   0  0  0  0  0  0  0  0  0  0  0  0
  -20.4670   62.8830   34.1250 C   0  0  0  0  0  0  0  0  0  0  0  0
  -19.5770   61.8560   33.7970 C   0  0  0  0  0  0  0  0  0  0  0  0
  -19.0740   61.7530   32.4970 C   0  0  0  0  0  0  0  0  0  0  0  0
  1  2  1  0  0  0  0
  2  8  1  0  0  0  0
  2  3  1  0  0  0  0
  3  4  2  0  0  0  0
  4  5  1  0  0  0  0
  4 23  1  0  0  0  0
  5  6  2  0  0  0  0
  7 10  1  0  0  0  0
  7  5  1  0  0  0  0
  8  7  1  0  0  0  0
  9  8  2  0  0  0  0
 10 17  1  0  0  0  0
 11 10  1  0  0  0  0
 12 11  1  0  0  0  0
 13 12  2  0  0  0  0
 14 15  2  0  0  0  0
 14 13  1  0  0  0  0
 15 16  1  0  0  0  0
 16 11  2  0  0  0  0
 17 18  1  0  0  0  0
 18 19  2  0  0  0  0
 20 19  1  0  0  0  0
 21 20  2  0  0  0  0
 22 17  2  0  0  0  0
 22 21  1  0  0  0  0
 23 24  1  0  0  0  0
 24 25  1  0  0  0  0
 25 26  2  0  0  0  0
 25 30  1  0  0  0  0
 26 27  1  0  0  0  0
 27 28  2  0  0  0  0
 29 28  1  0  0  0  0
 30 29  2  0  0  0  0
M  END
>  <REMARK>
 VINA RESULT:      -8.6      3.893      6.465
  6 active torsions:
  status: ('A' for Active; 'I' for Inactive)
    1  A    between atoms: C2_4  and  S1_5 
    2  A    between atoms: S1_5  and  C3_6 
    3  A    between atoms: C3_6  and  C4_7 
    4  A    between atoms: N3_15  and  C11_16 
    5  A    between atoms: C11_16  and  C12_17 
    6  A    between atoms: C11_16  and  C18_23 

>  <TORSDO>
F 6

$$$$
