../pdbqt/decoy.vina_out.10.pdbqt
 OpenBabel06052021513D

 28 31  0  0  1  0  0  0  0  0999 V2000
  -22.9920   65.4550   26.1700 C   0  0  1  0  0  0  0  0  0  0  0  0
  -24.4930   65.2900   25.9720 C   0  0  0  0  0  0  0  0  0  0  0  0
  -25.1410   65.9410   24.9010 C   0  0  0  0  0  0  0  0  0  0  0  0
  -26.5260   65.8120   24.7310 C   0  0  0  0  0  0  0  0  0  0  0  0
  -24.4110   66.7200   24.0070 O   0  0  0  0  0  0  0  0  0  0  0  0
  -27.1500   66.4320   23.6900 N   0  0  0  0  0  0  0  0  0  0  0  0
  -27.2810   65.0380   25.6390 C   0  0  0  0  0  0  0  0  0  0  0  0
  -28.4910   66.3280   23.4950 C   0  0  0  0  0  0  0  0  0  0  0  0
  -29.2730   65.5720   24.3710 C   0  0  0  0  0  0  0  0  0  0  0  0
  -28.6650   64.9240   25.4480 C   0  0  0  0  0  0  0  0  0  0  0  0
  -26.6440   64.4080   26.7130 C   0  0  0  0  0  0  0  0  0  0  0  0
  -25.2630   64.5370   26.8820 C   0  0  0  0  0  0  0  0  0  0  0  0
  -22.2660   64.2360   25.6260 C   0  0  0  0  0  0  0  0  0  0  0  0
  -21.2200   63.6490   26.3610 C   0  0  0  0  0  0  0  0  0  0  0  0
  -20.5550   62.5200   25.8700 C   0  0  0  0  0  0  0  0  0  0  0  0
  -20.9270   61.9670   24.6430 C   0  0  0  0  0  0  0  0  0  0  0  0
  -21.9650   62.5390   23.9040 C   0  0  0  0  0  0  0  0  0  0  0  0
  -22.6320   63.6670   24.3900 C   0  0  0  0  0  0  0  0  0  0  0  0
  -22.4840   66.6920   25.5440 N   0  0  0  0  0  0  0  0  0  0  0  0
  -22.8690   66.9370   24.6020 H   0  0  0  0  0  0  0  0  0  0  0  0
  -21.5990   67.5010   26.0800 C   0  0  0  0  0  0  0  0  0  0  0  0
  -21.2750   67.3610   27.4440 C   0  0  0  0  0  0  0  0  0  0  0  0
  -20.3210   68.2030   28.0290 C   0  0  2  0  0  0  0  0  0  0  0  0
  -20.0020   68.0840   29.4900 C   0  0  0  0  0  0  0  0  0  0  0  0
  -19.7210   69.1980   27.2540 C   0  0  0  0  0  0  0  0  0  0  0  0
  -20.0570   69.3170   25.9070 C   0  0  0  0  0  0  0  0  0  0  0  0
  -20.9730   68.4790   25.3480 N   0  0  0  0  0  0  0  0  0  0  0  0
  -21.1760   68.6240   24.3350 H   0  0  0  0  0  0  0  0  0  0  0  0
  1 19  1  6  0  0  0
  2  1  1  0  0  0  0
  2 12  2  0  0  0  0
  3  2  1  0  0  0  0
  4  3  2  0  0  0  0
  4  7  1  0  0  0  0
  5  3  1  0  0  0  0
  6  4  1  0  0  0  0
  7 11  2  0  0  0  0
  8  6  2  0  0  0  0
  8  9  1  0  0  0  0
  9 10  2  0  0  0  0
 10  7  1  0  0  0  0
 11 12  1  0  0  0  0
 13  1  1  0  0  0  0
 13 14  2  0  0  0  0
 15 14  1  0  0  0  0
 16 15  2  0  0  0  0
 17 18  2  0  0  0  0
 17 16  1  0  0  0  0
 18 13  1  0  0  0  0
 19 21  1  0  0  0  0
 20 19  1  0  0  0  0
 21 22  2  0  0  0  0
 22 23  1  0  0  0  0
 23 24  1  1  0  0  0
 25 23  1  0  0  0  0
 26 25  2  0  0  0  0
 27 26  1  0  0  0  0
 27 21  1  0  0  0  0
 28 27  1  0  0  0  0
M  END
>  <MODEL>
1

>  <REMARK>
 VINA RESULT:      -9.7      0.000      0.000
  4 active torsions:
  status: ('A' for Active; 'I' for Inactive)
    1  A    between atoms: C4_6  and  C5_7 
    2  A    between atoms: C5_7  and  C6_8 
    3  A    between atoms: C5_7  and  N2_14 
    4  A    between atoms: N2_14  and  C12_16 

>  <TORSDO>
F 4

$$$$
../pdbqt/decoy.vina_out.10.pdbqt
 OpenBabel06052021513D

 28 31  0  0  1  0  0  0  0  0999 V2000
  -24.4950   63.9080   26.2740 C   0  0  1  0  0  0  0  0  0  0  0  0
  -23.0030   63.6370   26.1300 C   0  0  0  0  0  0  0  0  0  0  0  0
  -22.4280   63.5130   24.8460 C   0  0  0  0  0  0  0  0  0  0  0  0
  -21.0610   63.2400   24.7100 C   0  0  0  0  0  0  0  0  0  0  0  0
  -23.2140   63.6590   23.7070 O   0  0  0  0  0  0  0  0  0  0  0  0
  -20.5030   63.1310   23.4710 N   0  0  0  0  0  0  0  0  0  0  0  0
  -20.2540   63.0740   25.8560 C   0  0  0  0  0  0  0  0  0  0  0  0
  -19.1810   62.8670   23.3010 C   0  0  0  0  0  0  0  0  0  0  0  0
  -18.3500   62.6960   24.4110 C   0  0  0  0  0  0  0  0  0  0  0  0
  -18.8890   62.8000   25.6940 C   0  0  0  0  0  0  0  0  0  0  0  0
  -20.8250   63.1770   27.1290 C   0  0  0  0  0  0  0  0  0  0  0  0
  -22.1890   63.4490   27.2650 C   0  0  0  0  0  0  0  0  0  0  0  0
  -24.9690   63.4470   27.6410 C   0  0  0  0  0  0  0  0  0  0  0  0
  -25.1080   64.3720   28.6920 C   0  0  0  0  0  0  0  0  0  0  0  0
  -25.5560   63.9540   29.9500 C   0  0  0  0  0  0  0  0  0  0  0  0
  -25.8690   62.6110   30.1710 C   0  0  0  0  0  0  0  0  0  0  0  0
  -25.7360   61.6830   29.1360 C   0  0  0  0  0  0  0  0  0  0  0  0
  -25.2900   62.0950   27.8770 C   0  0  0  0  0  0  0  0  0  0  0  0
  -24.8230   65.3310   26.0560 N   0  0  0  0  0  0  0  0  0  0  0  0
  -24.4350   66.0160   26.7460 H   0  0  0  0  0  0  0  0  0  0  0  0
  -25.5520   65.7940   25.0670 C   0  0  0  0  0  0  0  0  0  0  0  0
  -26.9450   65.5900   25.0840 C   0  0  0  0  0  0  0  0  0  0  0  0
  -27.7420   66.0920   24.0470 C   0  0  2  0  0  0  0  0  0  0  0  0
  -29.2210   65.8420   24.0410 C   0  0  0  0  0  0  0  0  0  0  0  0
  -27.1350   66.7680   22.9860 C   0  0  0  0  0  0  0  0  0  0  0  0
  -25.7550   66.9580   22.9910 C   0  0  0  0  0  0  0  0  0  0  0  0
  -24.9960   66.4800   24.0160 N   0  0  0  0  0  0  0  0  0  0  0  0
  -23.9710   66.6600   23.9550 H   0  0  0  0  0  0  0  0  0  0  0  0
  1 19  1  1  0  0  0
  1 13  1  0  0  0  0
  2  1  1  0  0  0  0
  2 12  2  0  0  0  0
  3  2  1  0  0  0  0
  4  3  2  0  0  0  0
  4  7  1  0  0  0  0
  5  3  1  0  0  0  0
  6  4  1  0  0  0  0
  7 11  2  0  0  0  0
  8  6  2  0  0  0  0
  8  9  1  0  0  0  0
  9 10  2  0  0  0  0
 10  7  1  0  0  0  0
 11 12  1  0  0  0  0
 13 18  2  0  0  0  0
 13 14  1  0  0  0  0
 14 15  2  0  0  0  0
 15 16  1  0  0  0  0
 17 16  2  0  0  0  0
 18 17  1  0  0  0  0
 19 20  1  0  0  0  0
 21 22  2  0  0  0  0
 21 19  1  0  0  0  0
 23 24  1  6  0  0  0
 23 22  1  0  0  0  0
 25 26  2  0  0  0  0
 25 23  1  0  0  0  0
 26 27  1  0  0  0  0
 27 21  1  0  0  0  0
 28 27  1  0  0  0  0
M  END
>  <REMARK>
 VINA RESULT:      -9.6      3.001      6.674
  4 active torsions:
  status: ('A' for Active; 'I' for Inactive)
    1  A    between atoms: C4_6  and  C5_7 
    2  A    between atoms: C5_7  and  C6_8 
    3  A    between atoms: C5_7  and  N2_14 
    4  A    between atoms: N2_14  and  C12_16 

>  <TORSDO>
F 4

$$$$
../pdbqt/decoy.vina_out.10.pdbqt
 OpenBabel06052021513D

 28 31  0  0  1  0  0  0  0  0999 V2000
  -22.5430   65.1450   25.4770 C   0  0  1  0  0  0  0  0  0  0  0  0
  -24.0620   65.1400   25.5760 C   0  0  0  0  0  0  0  0  0  0  0  0
  -24.8330   65.8830   24.6560 C   0  0  0  0  0  0  0  0  0  0  0  0
  -26.2300   65.9010   24.7590 C   0  0  0  0  0  0  0  0  0  0  0  0
  -24.2120   66.6070   23.6420 O   0  0  0  0  0  0  0  0  0  0  0  0
  -26.9750   66.6100   23.8650 N   0  0  0  0  0  0  0  0  0  0  0  0
  -26.8730   65.1850   25.7930 C   0  0  0  0  0  0  0  0  0  0  0  0
  -28.3320   66.6500   23.9350 C   0  0  0  0  0  0  0  0  0  0  0  0
  -29.0050   65.9540   24.9430 C   0  0  0  0  0  0  0  0  0  0  0  0
  -28.2720   65.2180   25.8760 C   0  0  0  0  0  0  0  0  0  0  0  0
  -26.1100   64.4630   26.7170 C   0  0  0  0  0  0  0  0  0  0  0  0
  -24.7170   64.4460   26.6130 C   0  0  0  0  0  0  0  0  0  0  0  0
  -21.9770   66.2690   26.3270 C   0  0  0  0  0  0  0  0  0  0  0  0
  -21.6430   67.5030   25.7390 C   0  0  0  0  0  0  0  0  0  0  0  0
  -21.1310   68.5440   26.5200 C   0  0  0  0  0  0  0  0  0  0  0  0
  -20.9490   68.3660   27.8930 C   0  0  0  0  0  0  0  0  0  0  0  0
  -21.2770   67.1470   28.4890 C   0  0  0  0  0  0  0  0  0  0  0  0
  -21.7890   66.1020   27.7140 C   0  0  0  0  0  0  0  0  0  0  0  0
  -21.9580   63.8460   25.8650 N   0  0  0  0  0  0  0  0  0  0  0  0
  -22.1460   63.5160   26.8420 H   0  0  0  0  0  0  0  0  0  0  0  0
  -21.2340   63.0790   25.0830 C   0  0  0  0  0  0  0  0  0  0  0  0
  -21.2340   63.3160   23.6940 C   0  0  0  0  0  0  0  0  0  0  0  0
  -20.4540   62.5210   22.8460 C   0  0  2  0  0  0  0  0  0  0  0  0
  -20.4820   62.7450   21.3630 C   0  0  0  0  0  0  0  0  0  0  0  0
  -19.7040   61.4750   23.3880 C   0  0  0  0  0  0  0  0  0  0  0  0
  -19.7200   61.2590   24.7650 C   0  0  0  0  0  0  0  0  0  0  0  0
  -20.4690   62.0530   25.5790 N   0  0  0  0  0  0  0  0  0  0  0  0
  -20.4320   61.8360   26.5990 H   0  0  0  0  0  0  0  0  0  0  0  0
  1  2  1  0  0  0  0
  1 19  1  1  0  0  0
  1 13  1  0  0  0  0
  2 12  2  0  0  0  0
  3  4  2  0  0  0  0
  3  2  1  0  0  0  0
  4  7  1  0  0  0  0
  5  3  1  0  0  0  0
  6  8  2  0  0  0  0
  6  4  1  0  0  0  0
  7 10  1  0  0  0  0
  7 11  2  0  0  0  0
  8  9  1  0  0  0  0
  9 10  2  0  0  0  0
 12 11  1  0  0  0  0
 13 18  1  0  0  0  0
 14 13  2  0  0  0  0
 14 15  1  0  0  0  0
 15 16  2  0  0  0  0
 16 17  1  0  0  0  0
 18 17  2  0  0  0  0
 19 20  1  0  0  0  0
 21 27  1  0  0  0  0
 21 19  1  0  0  0  0
 22 21  2  0  0  0  0
 23 24  1  6  0  0  0
 23 25  1  0  0  0  0
 23 22  1  0  0  0  0
 25 26  2  0  0  0  0
 26 27  1  0  0  0  0
 27 28  1  0  0  0  0
M  END
>  <REMARK>
 VINA RESULT:      -9.5      1.578      4.678
  4 active torsions:
  status: ('A' for Active; 'I' for Inactive)
    1  A    between atoms: C4_6  and  C5_7 
    2  A    between atoms: C5_7  and  C6_8 
    3  A    between atoms: C5_7  and  N2_14 
    4  A    between atoms: N2_14  and  C12_16 

>  <TORSDO>
F 4

$$$$
../pdbqt/decoy.vina_out.10.pdbqt
 OpenBabel06052021513D

 28 31  0  0  1  0  0  0  0  0999 V2000
  -21.9040   65.3790   25.2480 C   0  0  1  0  0  0  0  0  0  0  0  0
  -20.6990   65.1220   24.3540 C   0  0  0  0  0  0  0  0  0  0  0  0
  -19.8110   66.1750   24.0450 C   0  0  0  0  0  0  0  0  0  0  0  0
  -18.7150   65.9490   23.2020 C   0  0  0  0  0  0  0  0  0  0  0  0
  -20.0190   67.4470   24.5710 O   0  0  0  0  0  0  0  0  0  0  0  0
  -17.8520   66.9620   22.9120 N   0  0  0  0  0  0  0  0  0  0  0  0
  -18.5010   64.6680   22.6480 C   0  0  0  0  0  0  0  0  0  0  0  0
  -16.7780   66.7790   22.0990 C   0  0  0  0  0  0  0  0  0  0  0  0
  -16.5320   65.5260   21.5310 C   0  0  0  0  0  0  0  0  0  0  0  0
  -17.3980   64.4660   21.8070 C   0  0  0  0  0  0  0  0  0  0  0  0
  -19.3900   63.6280   22.9370 C   0  0  0  0  0  0  0  0  0  0  0  0
  -20.4830   63.8550   23.7770 C   0  0  0  0  0  0  0  0  0  0  0  0
  -21.4500   65.5410   26.6880 C   0  0  0  0  0  0  0  0  0  0  0  0
  -20.7850   64.4880   27.3440 C   0  0  0  0  0  0  0  0  0  0  0  0
  -20.3550   64.6360   28.6670 C   0  0  0  0  0  0  0  0  0  0  0  0
  -20.5820   65.8350   29.3470 C   0  0  0  0  0  0  0  0  0  0  0  0
  -21.2400   66.8880   28.7080 C   0  0  0  0  0  0  0  0  0  0  0  0
  -21.6720   66.7450   27.3860 C   0  0  0  0  0  0  0  0  0  0  0  0
  -22.6810   66.5540   24.8070 N   0  0  0  0  0  0  0  0  0  0  0  0
  -22.1530   67.4500   24.6820 H   0  0  0  0  0  0  0  0  0  0  0  0
  -23.9700   66.5560   24.5550 C   0  0  0  0  0  0  0  0  0  0  0  0
  -24.8290   65.7740   25.3520 C   0  0  0  0  0  0  0  0  0  0  0  0
  -26.2080   65.7770   25.1100 C   0  0  2  0  0  0  0  0  0  0  0  0
  -27.1220   64.9150   25.9310 C   0  0  0  0  0  0  0  0  0  0  0  0
  -26.7150   66.5370   24.0540 C   0  0  0  0  0  0  0  0  0  0  0  0
  -25.8460   67.3020   23.2790 C   0  0  0  0  0  0  0  0  0  0  0  0
  -24.5090   67.3040   23.5380 N   0  0  0  0  0  0  0  0  0  0  0  0
  -23.9190   67.9010   22.9190 H   0  0  0  0  0  0  0  0  0  0  0  0
  1 19  1  6  0  0  0
  1 13  1  0  0  0  0
  2  1  1  0  0  0  0
  3  2  1  0  0  0  0
  3  5  1  0  0  0  0
  4  3  2  0  0  0  0
  6  4  1  0  0  0  0
  7 11  2  0  0  0  0
  7  4  1  0  0  0  0
  8  6  2  0  0  0  0
  9 10  2  0  0  0  0
  9  8  1  0  0  0  0
 10  7  1  0  0  0  0
 11 12  1  0  0  0  0
 12  2  2  0  0  0  0
 13 14  2  0  0  0  0
 13 18  1  0  0  0  0
 14 15  1  0  0  0  0
 15 16  2  0  0  0  0
 17 16  1  0  0  0  0
 18 17  2  0  0  0  0
 20 19  1  0  0  0  0
 21 19  1  0  0  0  0
 21 22  2  0  0  0  0
 23 22  1  0  0  0  0
 23 24  1  6  0  0  0
 25 23  1  0  0  0  0
 26 27  1  0  0  0  0
 26 25  2  0  0  0  0
 27 21  1  0  0  0  0
 28 27  1  0  0  0  0
M  END
>  <REMARK>
 VINA RESULT:      -9.1      3.026      6.939
  4 active torsions:
  status: ('A' for Active; 'I' for Inactive)
    1  A    between atoms: C4_6  and  C5_7 
    2  A    between atoms: C5_7  and  C6_8 
    3  A    between atoms: C5_7  and  N2_14 
    4  A    between atoms: N2_14  and  C12_16 

>  <TORSDO>
F 4

$$$$
../pdbqt/decoy.vina_out.10.pdbqt
 OpenBabel06052021513D

 28 31  0  0  1  0  0  0  0  0999 V2000
  -22.4930   65.4700   24.9010 C   0  0  1  0  0  0  0  0  0  0  0  0
  -23.9870   65.3450   25.1670 C   0  0  0  0  0  0  0  0  0  0  0  0
  -24.9050   66.1060   24.4120 C   0  0  0  0  0  0  0  0  0  0  0  0
  -26.2790   66.0120   24.6710 C   0  0  0  0  0  0  0  0  0  0  0  0
  -24.4550   66.9590   23.4080 O   0  0  0  0  0  0  0  0  0  0  0  0
  -27.1670   66.7390   23.9350 N   0  0  0  0  0  0  0  0  0  0  0  0
  -26.7500   65.1640   25.6960 C   0  0  0  0  0  0  0  0  0  0  0  0
  -28.5060   66.6730   24.1580 C   0  0  0  0  0  0  0  0  0  0  0  0
  -29.0110   65.8450   25.1640 C   0  0  0  0  0  0  0  0  0  0  0  0
  -28.1290   65.0880   25.9360 C   0  0  0  0  0  0  0  0  0  0  0  0
  -25.8410   64.4240   26.4580 C   0  0  0  0  0  0  0  0  0  0  0  0
  -24.4710   64.5180   26.2000 C   0  0  0  0  0  0  0  0  0  0  0  0
  -21.8960   66.5280   25.8140 C   0  0  0  0  0  0  0  0  0  0  0  0
  -21.4940   67.7700   25.2900 C   0  0  0  0  0  0  0  0  0  0  0  0
  -20.9540   68.7510   26.1280 C   0  0  0  0  0  0  0  0  0  0  0  0
  -20.8110   68.5040   27.4950 C   0  0  0  0  0  0  0  0  0  0  0  0
  -21.2070   67.2750   28.0280 C   0  0  0  0  0  0  0  0  0  0  0  0
  -21.7470   66.2910   27.1950 C   0  0  0  0  0  0  0  0  0  0  0  0
  -21.7920   64.1810   25.0630 N   0  0  0  0  0  0  0  0  0  0  0  0
  -22.3040   63.4260   25.5770 H   0  0  0  0  0  0  0  0  0  0  0  0
  -20.5890   63.9130   24.6080 C   0  0  0  0  0  0  0  0  0  0  0  0
  -19.5120   63.8340   25.5120 C   0  0  0  0  0  0  0  0  0  0  0  0
  -18.2260   63.5320   25.0480 C   0  0  2  0  0  0  0  0  0  0  0  0
  -17.0690   63.4870   26.0020 C   0  0  0  0  0  0  0  0  0  0  0  0
  -18.0210   63.3410   23.6800 C   0  0  0  0  0  0  0  0  0  0  0  0
  -19.1020   63.4240   22.8040 C   0  0  0  0  0  0  0  0  0  0  0  0
  -20.3500   63.7000   23.2730 N   0  0  0  0  0  0  0  0  0  0  0  0
  -21.1120   63.7450   22.5620 H   0  0  0  0  0  0  0  0  0  0  0  0
  1 19  1  1  0  0  0
  1  2  1  0  0  0  0
  1 13  1  0  0  0  0
  2 12  2  0  0  0  0
  3  4  2  0  0  0  0
  3  2  1  0  0  0  0
  4  7  1  0  0  0  0
  5  3  1  0  0  0  0
  6  8  2  0  0  0  0
  6  4  1  0  0  0  0
  7 10  1  0  0  0  0
  7 11  2  0  0  0  0
  8  9  1  0  0  0  0
  9 10  2  0  0  0  0
 12 11  1  0  0  0  0
 13 18  1  0  0  0  0
 14 13  2  0  0  0  0
 14 15  1  0  0  0  0
 15 16  2  0  0  0  0
 16 17  1  0  0  0  0
 18 17  2  0  0  0  0
 19 20  1  0  0  0  0
 21 19  1  0  0  0  0
 21 22  2  0  0  0  0
 23 22  1  0  0  0  0
 23 24  1  6  0  0  0
 25 23  1  0  0  0  0
 26 27  1  0  0  0  0
 26 25  2  0  0  0  0
 27 21  1  0  0  0  0
 28 27  1  0  0  0  0
M  END
>  <REMARK>
 VINA RESULT:      -9.1      1.808      4.014
  4 active torsions:
  status: ('A' for Active; 'I' for Inactive)
    1  A    between atoms: C4_6  and  C5_7 
    2  A    between atoms: C5_7  and  C6_8 
    3  A    between atoms: C5_7  and  N2_14 
    4  A    between atoms: N2_14  and  C12_16 

>  <TORSDO>
F 4

$$$$
../pdbqt/decoy.vina_out.10.pdbqt
 OpenBabel06052021513D

 28 31  0  0  1  0  0  0  0  0999 V2000
  -22.9740   65.7850   25.8420 C   0  0  1  0  0  0  0  0  0  0  0  0
  -24.3710   65.9090   25.2490 C   0  0  0  0  0  0  0  0  0  0  0  0
  -25.4500   65.2080   25.8290 C   0  0  0  0  0  0  0  0  0  0  0  0
  -26.7320   65.3000   25.2710 C   0  0  0  0  0  0  0  0  0  0  0  0
  -25.2500   64.4180   26.9580 O   0  0  0  0  0  0  0  0  0  0  0  0
  -27.7760   64.6320   25.8380 N   0  0  0  0  0  0  0  0  0  0  0  0
  -26.9470   66.0850   24.1180 C   0  0  0  0  0  0  0  0  0  0  0  0
  -29.0330   64.6990   25.3240 C   0  0  0  0  0  0  0  0  0  0  0  0
  -29.2860   65.4650   24.1830 C   0  0  0  0  0  0  0  0  0  0  0  0
  -28.2390   66.1610   23.5780 C   0  0  0  0  0  0  0  0  0  0  0  0
  -25.8760   66.7650   23.5300 C   0  0  0  0  0  0  0  0  0  0  0  0
  -24.5980   66.6730   24.0860 C   0  0  0  0  0  0  0  0  0  0  0  0
  -22.3840   64.4310   25.4870 C   0  0  0  0  0  0  0  0  0  0  0  0
  -22.6170   63.8670   24.2200 C   0  0  0  0  0  0  0  0  0  0  0  0
  -22.0680   62.6250   23.8850 C   0  0  0  0  0  0  0  0  0  0  0  0
  -21.2810   61.9350   24.8090 C   0  0  0  0  0  0  0  0  0  0  0  0
  -21.0410   62.4840   26.0710 C   0  0  0  0  0  0  0  0  0  0  0  0
  -21.5880   63.7250   26.4110 C   0  0  0  0  0  0  0  0  0  0  0  0
  -22.0850   66.8780   25.3990 N   0  0  0  0  0  0  0  0  0  0  0  0
  -22.5470   67.7660   25.0910 H   0  0  0  0  0  0  0  0  0  0  0  0
  -20.7740   66.8190   25.3690 C   0  0  0  0  0  0  0  0  0  0  0  0
  -20.1230   66.5780   24.1430 C   0  0  0  0  0  0  0  0  0  0  0  0
  -18.7240   66.5300   24.0880 C   0  0  2  0  0  0  0  0  0  0  0  0
  -18.0280   66.2340   22.7930 C   0  0  0  0  0  0  0  0  0  0  0  0
  -17.9880   66.6930   25.2640 C   0  0  0  0  0  0  0  0  0  0  0  0
  -18.6540   66.9300   26.4640 C   0  0  0  0  0  0  0  0  0  0  0  0
  -20.0140   66.9920   26.4990 N   0  0  0  0  0  0  0  0  0  0  0  0
  -20.4460   67.1750   27.4310 H   0  0  0  0  0  0  0  0  0  0  0  0
  1 19  1  6  0  0  0
  2  3  2  0  0  0  0
  2  1  1  0  0  0  0
  3  5  1  0  0  0  0
  4  3  1  0  0  0  0
  4  6  2  0  0  0  0
  7  4  1  0  0  0  0
  8  6  1  0  0  0  0
  9  8  2  0  0  0  0
 10  7  2  0  0  0  0
 10  9  1  0  0  0  0
 11 12  2  0  0  0  0
 11  7  1  0  0  0  0
 12  2  1  0  0  0  0
 13  1  1  0  0  0  0
 13 18  2  0  0  0  0
 14 13  1  0  0  0  0
 15 14  2  0  0  0  0
 15 16  1  0  0  0  0
 16 17  2  0  0  0  0
 17 18  1  0  0  0  0
 20 19  1  0  0  0  0
 21 19  1  0  0  0  0
 21 27  1  0  0  0  0
 22 21  2  0  0  0  0
 23 24  1  1  0  0  0
 23 22  1  0  0  0  0
 23 25  1  0  0  0  0
 25 26  2  0  0  0  0
 26 27  1  0  0  0  0
 27 28  1  0  0  0  0
M  END
>  <REMARK>
 VINA RESULT:      -9.1      1.952      2.825
  4 active torsions:
  status: ('A' for Active; 'I' for Inactive)
    1  A    between atoms: C4_6  and  C5_7 
    2  A    between atoms: C5_7  and  C6_8 
    3  A    between atoms: C5_7  and  N2_14 
    4  A    between atoms: N2_14  and  C12_16 

>  <TORSDO>
F 4

$$$$
../pdbqt/decoy.vina_out.10.pdbqt
 OpenBabel06052021513D

 28 31  0  0  1  0  0  0  0  0999 V2000
  -23.4550   64.1460   25.4180 C   0  0  1  0  0  0  0  0  0  0  0  0
  -22.0640   63.6830   25.0060 C   0  0  0  0  0  0  0  0  0  0  0  0
  -21.0760   64.6320   24.6630 C   0  0  0  0  0  0  0  0  0  0  0  0
  -19.8030   64.2090   24.2590 C   0  0  0  0  0  0  0  0  0  0  0  0
  -21.3590   65.9930   24.7200 O   0  0  0  0  0  0  0  0  0  0  0  0
  -18.8460   65.1240   23.9380 N   0  0  0  0  0  0  0  0  0  0  0  0
  -19.5070   62.8310   24.1810 C   0  0  0  0  0  0  0  0  0  0  0  0
  -17.6010   64.7500   23.5420 C   0  0  0  0  0  0  0  0  0  0  0  0
  -17.2690   63.3960   23.4530 C   0  0  0  0  0  0  0  0  0  0  0  0
  -18.2260   62.4320   23.7730 C   0  0  0  0  0  0  0  0  0  0  0  0
  -20.4900   61.8890   24.5020 C   0  0  0  0  0  0  0  0  0  0  0  0
  -21.7590   62.3110   24.9040 C   0  0  0  0  0  0  0  0  0  0  0  0
  -23.6600   63.8960   26.9020 C   0  0  0  0  0  0  0  0  0  0  0  0
  -23.1110   64.7780   27.8520 C   0  0  0  0  0  0  0  0  0  0  0  0
  -23.3060   64.5580   29.2190 C   0  0  0  0  0  0  0  0  0  0  0  0
  -24.0490   63.4580   29.6530 C   0  0  0  0  0  0  0  0  0  0  0  0
  -24.6000   62.5750   28.7210 C   0  0  0  0  0  0  0  0  0  0  0  0
  -24.4080   62.7900   27.3530 C   0  0  0  0  0  0  0  0  0  0  0  0
  -23.6870   65.5660   25.0880 N   0  0  0  0  0  0  0  0  0  0  0  0
  -22.8850   66.2230   25.2380 H   0  0  0  0  0  0  0  0  0  0  0  0
  -24.8100   66.0580   24.6180 C   0  0  0  0  0  0  0  0  0  0  0  0
  -26.0360   65.5720   25.1130 C   0  0  0  0  0  0  0  0  0  0  0  0
  -27.2440   66.0970   24.6380 C   0  0  2  0  0  0  0  0  0  0  0  0
  -28.5510   65.5540   25.1340 C   0  0  0  0  0  0  0  0  0  0  0  0
  -27.2180   67.0820   23.6480 C   0  0  0  0  0  0  0  0  0  0  0  0
  -25.9930   67.5470   23.1730 C   0  0  0  0  0  0  0  0  0  0  0  0
  -24.8270   67.0400   23.6590 N   0  0  0  0  0  0  0  0  0  0  0  0
  -23.9480   67.4360   23.2600 H   0  0  0  0  0  0  0  0  0  0  0  0
  1 19  1  1  0  0  0
  1 13  1  0  0  0  0
  2  1  1  0  0  0  0
  3  5  1  0  0  0  0
  3  2  2  0  0  0  0
  4  3  1  0  0  0  0
  6  4  2  0  0  0  0
  7  4  1  0  0  0  0
  7 11  1  0  0  0  0
  8  6  1  0  0  0  0
  9  8  2  0  0  0  0
  9 10  1  0  0  0  0
 10  7  2  0  0  0  0
 11 12  2  0  0  0  0
 12  2  1  0  0  0  0
 13 18  2  0  0  0  0
 13 14  1  0  0  0  0
 14 15  2  0  0  0  0
 15 16  1  0  0  0  0
 17 16  2  0  0  0  0
 18 17  1  0  0  0  0
 19 20  1  0  0  0  0
 21 19  1  0  0  0  0
 21 22  2  0  0  0  0
 23 22  1  0  0  0  0
 23 24  1  6  0  0  0
 25 23  1  0  0  0  0
 26 25  2  0  0  0  0
 26 27  1  0  0  0  0
 27 21  1  0  0  0  0
 28 27  1  0  0  0  0
M  END
>  <REMARK>
 VINA RESULT:      -8.9      2.623      6.650
  4 active torsions:
  status: ('A' for Active; 'I' for Inactive)
    1  A    between atoms: C4_6  and  C5_7 
    2  A    between atoms: C5_7  and  C6_8 
    3  A    between atoms: C5_7  and  N2_14 
    4  A    between atoms: N2_14  and  C12_16 

>  <TORSDO>
F 4

$$$$
../pdbqt/decoy.vina_out.10.pdbqt
 OpenBabel06052021513D

 28 31  0  0  1  0  0  0  0  0999 V2000
  -22.6870   64.4230   26.0130 C   0  0  1  0  0  0  0  0  0  0  0  0
  -23.9200   65.1380   25.4750 C   0  0  0  0  0  0  0  0  0  0  0  0
  -25.2050   64.7630   25.9200 C   0  0  0  0  0  0  0  0  0  0  0  0
  -26.3430   65.4010   25.4090 C   0  0  0  0  0  0  0  0  0  0  0  0
  -25.3550   63.7540   26.8680 O   0  0  0  0  0  0  0  0  0  0  0  0
  -27.5840   65.0470   25.8470 N   0  0  0  0  0  0  0  0  0  0  0  0
  -26.2080   66.4150   24.4350 C   0  0  0  0  0  0  0  0  0  0  0  0
  -28.7090   65.6440   25.3730 C   0  0  0  0  0  0  0  0  0  0  0  0
  -28.6170   66.6510   24.4090 C   0  0  0  0  0  0  0  0  0  0  0  0
  -27.3610   67.0380   23.9380 C   0  0  0  0  0  0  0  0  0  0  0  0
  -24.9360   66.7750   23.9780 C   0  0  0  0  0  0  0  0  0  0  0  0
  -23.8030   66.1370   24.4880 C   0  0  0  0  0  0  0  0  0  0  0  0
  -21.8200   63.9550   24.8570 C   0  0  0  0  0  0  0  0  0  0  0  0
  -20.5490   64.5220   24.6510 C   0  0  0  0  0  0  0  0  0  0  0  0
  -19.7420   64.0870   23.5940 C   0  0  0  0  0  0  0  0  0  0  0  0
  -20.1940   63.0830   22.7350 C   0  0  0  0  0  0  0  0  0  0  0  0
  -21.4530   62.5120   22.9290 C   0  0  0  0  0  0  0  0  0  0  0  0
  -22.2640   62.9430   23.9830 C   0  0  0  0  0  0  0  0  0  0  0  0
  -21.9150   65.2740   26.9400 N   0  0  0  0  0  0  0  0  0  0  0  0
  -21.0590   65.7380   26.5530 H   0  0  0  0  0  0  0  0  0  0  0  0
  -22.2220   65.4940   28.1970 C   0  0  0  0  0  0  0  0  0  0  0  0
  -21.6850   66.6200   28.8510 C   0  0  0  0  0  0  0  0  0  0  0  0
  -22.0150   66.8800   30.1870 C   0  0  2  0  0  0  0  0  0  0  0  0
  -21.4140   68.0560   30.8990 C   0  0  0  0  0  0  0  0  0  0  0  0
  -22.8560   65.9970   30.8670 C   0  0  0  0  0  0  0  0  0  0  0  0
  -23.3750   64.8900   30.2000 C   0  0  0  0  0  0  0  0  0  0  0  0
  -23.0600   64.6600   28.8960 N   0  0  0  0  0  0  0  0  0  0  0  0
  -23.4860   63.8140   28.4590 H   0  0  0  0  0  0  0  0  0  0  0  0
  1 19  1  1  0  0  0
  2  3  1  0  0  0  0
  2  1  1  0  0  0  0
  3  5  1  0  0  0  0
  4  6  1  0  0  0  0
  4  3  2  0  0  0  0
  7  4  1  0  0  0  0
  8  6  2  0  0  0  0
  9  8  1  0  0  0  0
 10  9  2  0  0  0  0
 10  7  1  0  0  0  0
 11  7  2  0  0  0  0
 11 12  1  0  0  0  0
 12  2  2  0  0  0  0
 13  1  1  0  0  0  0
 14 13  1  0  0  0  0
 15 14  2  0  0  0  0
 16 17  2  0  0  0  0
 16 15  1  0  0  0  0
 17 18  1  0  0  0  0
 18 13  2  0  0  0  0
 19 21  1  0  0  0  0
 20 19  1  0  0  0  0
 21 22  2  0  0  0  0
 21 27  1  0  0  0  0
 22 23  1  0  0  0  0
 23 25  1  0  0  0  0
 23 24  1  1  0  0  0
 26 25  2  0  0  0  0
 27 26  1  0  0  0  0
 28 27  1  0  0  0  0
M  END
>  <REMARK>
 VINA RESULT:      -8.9      2.141      3.026
  4 active torsions:
  status: ('A' for Active; 'I' for Inactive)
    1  A    between atoms: C4_6  and  C5_7 
    2  A    between atoms: C5_7  and  C6_8 
    3  A    between atoms: C5_7  and  N2_14 
    4  A    between atoms: N2_14  and  C12_16 

>  <TORSDO>
F 4

$$$$
../pdbqt/decoy.vina_out.10.pdbqt
 OpenBabel06052021513D

 28 31  0  0  1  0  0  0  0  0999 V2000
  -23.4160   64.9200   25.8890 C   0  0  1  0  0  0  0  0  0  0  0  0
  -22.4770   65.9140   26.5590 C   0  0  0  0  0  0  0  0  0  0  0  0
  -21.7960   66.8760   25.7840 C   0  0  0  0  0  0  0  0  0  0  0  0
  -20.9120   67.7760   26.3940 C   0  0  0  0  0  0  0  0  0  0  0  0
  -21.9930   66.9380   24.4070 O   0  0  0  0  0  0  0  0  0  0  0  0
  -20.2620   68.7130   25.6470 N   0  0  0  0  0  0  0  0  0  0  0  0
  -20.6900   67.7150   27.7870 C   0  0  0  0  0  0  0  0  0  0  0  0
  -19.3980   69.6010   26.2060 C   0  0  0  0  0  0  0  0  0  0  0  0
  -19.1520   69.5730   27.5800 C   0  0  0  0  0  0  0  0  0  0  0  0
  -19.8000   68.6260   28.3740 C   0  0  0  0  0  0  0  0  0  0  0  0
  -21.3490   66.7490   28.5540 C   0  0  0  0  0  0  0  0  0  0  0  0
  -22.2300   65.8520   27.9450 C   0  0  0  0  0  0  0  0  0  0  0  0
  -22.6090   63.8050   25.2450 C   0  0  0  0  0  0  0  0  0  0  0  0
  -21.7490   63.0120   26.0260 C   0  0  0  0  0  0  0  0  0  0  0  0
  -21.0120   61.9780   25.4400 C   0  0  0  0  0  0  0  0  0  0  0  0
  -21.1260   61.7240   24.0710 C   0  0  0  0  0  0  0  0  0  0  0  0
  -21.9780   62.5040   23.2850 C   0  0  0  0  0  0  0  0  0  0  0  0
  -22.7170   63.5390   23.8650 C   0  0  0  0  0  0  0  0  0  0  0  0
  -24.4090   64.3720   26.8340 N   0  0  0  0  0  0  0  0  0  0  0  0
  -24.0360   63.9300   27.7070 H   0  0  0  0  0  0  0  0  0  0  0  0
  -25.7110   64.4040   26.6640 C   0  0  0  0  0  0  0  0  0  0  0  0
  -26.2580   65.2610   25.6890 C   0  0  0  0  0  0  0  0  0  0  0  0
  -27.6420   65.2960   25.4820 C   0  0  2  0  0  0  0  0  0  0  0  0
  -28.2320   66.2350   24.4710 C   0  0  0  0  0  0  0  0  0  0  0  0
  -28.4720   64.4970   26.2720 C   0  0  0  0  0  0  0  0  0  0  0  0
  -27.9080   63.6580   27.2310 C   0  0  0  0  0  0  0  0  0  0  0  0
  -26.5590   63.6210   27.4080 N   0  0  0  0  0  0  0  0  0  0  0  0
  -26.2060   62.9690   28.1420 H   0  0  0  0  0  0  0  0  0  0  0  0
  1  2  1  0  0  0  0
  1 19  1  1  0  0  0
  2 12  2  0  0  0  0
  3  4  2  0  0  0  0
  3  2  1  0  0  0  0
  4  7  1  0  0  0  0
  5  3  1  0  0  0  0
  6  8  2  0  0  0  0
  6  4  1  0  0  0  0
  7 10  1  0  0  0  0
  7 11  2  0  0  0  0
  8  9  1  0  0  0  0
  9 10  2  0  0  0  0
 12 11  1  0  0  0  0
 13  1  1  0  0  0  0
 13 14  2  0  0  0  0
 15 14  1  0  0  0  0
 16 15  2  0  0  0  0
 17 18  2  0  0  0  0
 17 16  1  0  0  0  0
 18 13  1  0  0  0  0
 19 20  1  0  0  0  0
 21 19  1  0  0  0  0
 21 27  1  0  0  0  0
 22 21  2  0  0  0  0
 23 24  1  1  0  0  0
 23 22  1  0  0  0  0
 23 25  1  0  0  0  0
 25 26  2  0  0  0  0
 26 27  1  0  0  0  0
 27 28  1  0  0  0  0
M  END
>  <REMARK>
 VINA RESULT:      -8.9      1.494      6.341
  4 active torsions:
  status: ('A' for Active; 'I' for Inactive)
    1  A    between atoms: C4_6  and  C5_7 
    2  A    between atoms: C5_7  and  C6_8 
    3  A    between atoms: C5_7  and  N2_14 
    4  A    between atoms: N2_14  and  C12_16 

>  <TORSDO>
F 4

$$$$
