../pdbqt/decoy.vina_out.19.pdbqt
 OpenBabel06052021513D

 22 25  0  0  0  0  0  0  0  0999 V2000
  -24.0000   63.8450   26.4170 N   0  0  0  0  0  0  0  0  0  0  0  0
  -24.9270   63.2190   27.1830 C   0  0  0  0  0  0  0  0  0  0  0  0
  -24.7250   62.1790   28.0950 C   0  0  0  0  0  0  0  0  0  0  0  0
  -25.8460   61.6760   28.7810 C   0  0  0  0  0  0  0  0  0  0  0  0
  -27.1330   62.2070   28.5410 C   0  0  0  0  0  0  0  0  0  0  0  0
  -27.3160   63.2470   27.6130 C   0  0  0  0  0  0  0  0  0  0  0  0
  -26.1890   63.7290   26.9500 C   0  0  0  0  0  0  0  0  0  0  0  0
  -26.0400   64.7060   25.9900 C   0  0  0  0  0  0  0  0  0  0  0  0
  -26.9660   65.5420   25.3690 C   0  0  0  0  0  0  0  0  0  0  0  0
  -26.4870   66.4470   24.4060 C   0  0  0  0  0  0  0  0  0  0  0  0
  -25.1110   66.4960   24.0880 C   0  0  0  0  0  0  0  0  0  0  0  0
  -24.1970   65.6400   24.7290 C   0  0  0  0  0  0  0  0  0  0  0  0
  -24.6940   64.7470   25.6820 C   0  0  0  0  0  0  0  0  0  0  0  0
  -22.5960   63.5520   26.3360 C   0  0  0  0  0  0  0  0  0  0  0  0
  -21.6510   64.1970   27.1760 C   0  0  0  0  0  0  0  0  0  0  0  0
  -20.3010   63.8080   27.1000 C   0  0  0  0  0  0  0  0  0  0  0  0
  -19.8910   62.8230   26.1980 C   0  0  0  0  0  0  0  0  0  0  0  0
  -20.8210   62.2110   25.3590 C   0  0  0  0  0  0  0  0  0  0  0  0
  -22.1660   62.5720   25.4290 C   0  0  0  0  0  0  0  0  0  0  0  0
  -22.0280   65.2870   28.1100 C   0  0  0  0  0  0  0  0  0  0  0  0
  -21.7820   66.4910   27.8360 O   0  0  0  0  0  0  0  0  0  0  0  0
  -22.6320   64.9880   29.3250 O   0  0  0  0  0  0  0  0  0  0  0  0
  1  2  1  0  0  0  0
  2  3  1  0  0  0  0
  3  4  2  0  0  0  0
  5  4  1  0  0  0  0
  6  5  2  0  0  0  0
  7  2  2  0  0  0  0
  7  6  1  0  0  0  0
  8  7  1  0  0  0  0
  9  8  2  0  0  0  0
 10  9  1  0  0  0  0
 11 10  2  0  0  0  0
 11 12  1  0  0  0  0
 12 13  2  0  0  0  0
 13  8  1  0  0  0  0
 13  1  1  0  0  0  0
 14  1  1  0  0  0  0
 14 15  2  0  0  0  0
 15 20  1  0  0  0  0
 16 15  1  0  0  0  0
 17 16  2  0  0  0  0
 18 19  2  0  0  0  0
 18 17  1  0  0  0  0
 19 14  1  0  0  0  0
 20 22  1  0  0  0  0
 21 20  2  0  0  0  0
M  END
>  <MODEL>
1

>  <REMARK>
 VINA RESULT:      -9.3      0.000      0.000
  2 active torsions:
  status: ('A' for Active; 'I' for Inactive)
    1  A    between atoms: C1_2  and  C2_4 
    2  A    between atoms: C7_9  and  N1_10 

>  <TORSDO>
F 2

$$$$
../pdbqt/decoy.vina_out.19.pdbqt
 OpenBabel06052021513D

 22 25  0  0  0  0  0  0  0  0999 V2000
  -23.9570   65.1630   25.6210 N   0  0  0  0  0  0  0  0  0  0  0  0
  -24.9470   65.7980   24.9470 C   0  0  0  0  0  0  0  0  0  0  0  0
  -24.8200   66.7880   23.9690 C   0  0  0  0  0  0  0  0  0  0  0  0
  -25.9980   67.3130   23.4050 C   0  0  0  0  0  0  0  0  0  0  0  0
  -27.2650   66.8500   23.8260 C   0  0  0  0  0  0  0  0  0  0  0  0
  -27.3700   65.8590   24.8170 C   0  0  0  0  0  0  0  0  0  0  0  0
  -26.1890   65.3550   25.3580 C   0  0  0  0  0  0  0  0  0  0  0  0
  -25.9590   64.4130   26.3370 C   0  0  0  0  0  0  0  0  0  0  0  0
  -26.8330   63.6460   27.1060 C   0  0  0  0  0  0  0  0  0  0  0  0
  -26.2720   62.7610   28.0440 C   0  0  0  0  0  0  0  0  0  0  0  0
  -24.8700   62.6640   28.1920 C   0  0  0  0  0  0  0  0  0  0  0  0
  -24.0110   63.4510   27.4030 C   0  0  0  0  0  0  0  0  0  0  0  0
  -24.5880   64.3250   26.4780 C   0  0  0  0  0  0  0  0  0  0  0  0
  -22.5430   65.3960   25.5140 C   0  0  0  0  0  0  0  0  0  0  0  0
  -21.6890   64.4910   24.8320 C   0  0  0  0  0  0  0  0  0  0  0  0
  -20.3260   64.8170   24.6970 C   0  0  0  0  0  0  0  0  0  0  0  0
  -19.8160   65.9960   25.2430 C   0  0  0  0  0  0  0  0  0  0  0  0
  -20.6570   66.8690   25.9320 C   0  0  0  0  0  0  0  0  0  0  0  0
  -22.0130   66.5720   26.0660 C   0  0  0  0  0  0  0  0  0  0  0  0
  -22.1710   63.1990   24.2830 C   0  0  0  0  0  0  0  0  0  0  0  0
  -22.8690   63.1590   23.2350 O   0  0  0  0  0  0  0  0  0  0  0  0
  -21.8850   62.0090   24.9410 O   0  0  0  0  0  0  0  0  0  0  0  0
  1 13  1  0  0  0  0
  2  7  1  0  0  0  0
  2  1  1  0  0  0  0
  3  2  2  0  0  0  0
  4  5  2  0  0  0  0
  4  3  1  0  0  0  0
  5  6  1  0  0  0  0
  6  7  2  0  0  0  0
  7  8  1  0  0  0  0
  8 13  2  0  0  0  0
  8  9  1  0  0  0  0
  9 10  2  0  0  0  0
 10 11  1  0  0  0  0
 12 11  2  0  0  0  0
 13 12  1  0  0  0  0
 14  1  1  0  0  0  0
 14 19  2  0  0  0  0
 15 14  1  0  0  0  0
 16 15  2  0  0  0  0
 16 17  1  0  0  0  0
 17 18  2  0  0  0  0
 18 19  1  0  0  0  0
 20 15  1  0  0  0  0
 20 22  1  0  0  0  0
 21 20  2  0  0  0  0
M  END
>  <REMARK>
 VINA RESULT:      -9.3      2.259      4.273
  2 active torsions:
  status: ('A' for Active; 'I' for Inactive)
    1  A    between atoms: C1_2  and  C2_4 
    2  A    between atoms: C7_9  and  N1_10 

>  <TORSDO>
F 2

$$$$
../pdbqt/decoy.vina_out.19.pdbqt
 OpenBabel06052021513D

 22 25  0  0  0  0  0  0  0  0999 V2000
  -23.8840   63.7430   26.3600 N   0  0  0  0  0  0  0  0  0  0  0  0
  -24.5660   64.6800   25.6570 C   0  0  0  0  0  0  0  0  0  0  0  0
  -24.0610   65.5850   24.7190 C   0  0  0  0  0  0  0  0  0  0  0  0
  -24.9630   66.4780   24.1110 C   0  0  0  0  0  0  0  0  0  0  0  0
  -26.3340   66.4570   24.4520 C   0  0  0  0  0  0  0  0  0  0  0  0
  -26.8210   65.5450   25.4040 C   0  0  0  0  0  0  0  0  0  0  0  0
  -25.9070   64.6700   25.9890 C   0  0  0  0  0  0  0  0  0  0  0  0
  -26.0610   63.6920   26.9480 C   0  0  0  0  0  0  0  0  0  0  0  0
  -27.1830   63.2500   27.6450 C   0  0  0  0  0  0  0  0  0  0  0  0
  -27.0040   62.2170   28.5820 C   0  0  0  0  0  0  0  0  0  0  0  0
  -25.7250   61.6560   28.7990 C   0  0  0  0  0  0  0  0  0  0  0  0
  -24.6080   62.1230   28.0810 C   0  0  0  0  0  0  0  0  0  0  0  0
  -24.8060   63.1520   27.1560 C   0  0  0  0  0  0  0  0  0  0  0  0
  -22.4690   63.4940   26.3340 C   0  0  0  0  0  0  0  0  0  0  0  0
  -21.5780   64.1680   27.2080 C   0  0  0  0  0  0  0  0  0  0  0  0
  -20.2140   63.8210   27.1840 C   0  0  0  0  0  0  0  0  0  0  0  0
  -19.7400   62.8490   26.3010 C   0  0  0  0  0  0  0  0  0  0  0  0
  -20.6180   62.2080   25.4290 C   0  0  0  0  0  0  0  0  0  0  0  0
  -21.9750   62.5260   25.4460 C   0  0  0  0  0  0  0  0  0  0  0  0
  -22.0230   65.2470   28.1250 C   0  0  0  0  0  0  0  0  0  0  0  0
  -21.8410   66.4590   27.8380 O   0  0  0  0  0  0  0  0  0  0  0  0
  -22.6230   64.9300   29.3370 O   0  0  0  0  0  0  0  0  0  0  0  0
  1 13  1  0  0  0  0
  2  7  1  0  0  0  0
  2  1  1  0  0  0  0
  3  2  2  0  0  0  0
  4  5  2  0  0  0  0
  4  3  1  0  0  0  0
  5  6  1  0  0  0  0
  6  7  2  0  0  0  0
  7  8  1  0  0  0  0
  8 13  2  0  0  0  0
  8  9  1  0  0  0  0
  9 10  2  0  0  0  0
 10 11  1  0  0  0  0
 12 11  2  0  0  0  0
 13 12  1  0  0  0  0
 14  1  1  0  0  0  0
 14 15  2  0  0  0  0
 15 20  1  0  0  0  0
 16 15  1  0  0  0  0
 17 16  2  0  0  0  0
 18 19  2  0  0  0  0
 18 17  1  0  0  0  0
 19 14  1  0  0  0  0
 20 22  1  0  0  0  0
 21 20  2  0  0  0  0
M  END
>  <REMARK>
 VINA RESULT:      -9.2      0.141      3.331
  2 active torsions:
  status: ('A' for Active; 'I' for Inactive)
    1  A    between atoms: C1_2  and  C2_4 
    2  A    between atoms: C7_9  and  N1_10 

>  <TORSDO>
F 2

$$$$
../pdbqt/decoy.vina_out.19.pdbqt
 OpenBabel06052021513D

 22 25  0  0  0  0  0  0  0  0999 V2000
  -23.8580   65.1540   25.8030 N   0  0  0  0  0  0  0  0  0  0  0  0
  -24.5090   64.2810   26.6100 C   0  0  0  0  0  0  0  0  0  0  0  0
  -23.9550   63.3880   27.5320 C   0  0  0  0  0  0  0  0  0  0  0  0
  -24.8320   62.5650   28.2630 C   0  0  0  0  0  0  0  0  0  0  0  0
  -26.2280   62.6430   28.0590 C   0  0  0  0  0  0  0  0  0  0  0  0
  -26.7650   63.5420   27.1210 C   0  0  0  0  0  0  0  0  0  0  0  0
  -25.8750   64.3460   26.4120 C   0  0  0  0  0  0  0  0  0  0  0  0
  -26.0780   65.2930   25.4320 C   0  0  0  0  0  0  0  0  0  0  0  0
  -27.2430   65.7660   24.8300 C   0  0  0  0  0  0  0  0  0  0  0  0
  -27.1110   66.7520   23.8360 C   0  0  0  0  0  0  0  0  0  0  0  0
  -25.8350   67.2380   23.4710 C   0  0  0  0  0  0  0  0  0  0  0  0
  -24.6750   66.7420   24.0940 C   0  0  0  0  0  0  0  0  0  0  0  0
  -24.8270   65.7610   25.0770 C   0  0  0  0  0  0  0  0  0  0  0  0
  -22.4380   65.3320   25.6790 C   0  0  0  0  0  0  0  0  0  0  0  0
  -21.6320   64.4100   24.9610 C   0  0  0  0  0  0  0  0  0  0  0  0
  -20.2600   64.6830   24.8120 C   0  0  0  0  0  0  0  0  0  0  0  0
  -19.6930   65.8270   25.3780 C   0  0  0  0  0  0  0  0  0  0  0  0
  -20.4870   66.7160   26.1020 C   0  0  0  0  0  0  0  0  0  0  0  0
  -21.8520   66.4710   26.2500 C   0  0  0  0  0  0  0  0  0  0  0  0
  -22.1750   63.1530   24.3880 C   0  0  0  0  0  0  0  0  0  0  0  0
  -22.8650   63.1650   23.3350 O   0  0  0  0  0  0  0  0  0  0  0  0
  -21.9550   61.9410   25.0300 O   0  0  0  0  0  0  0  0  0  0  0  0
  1  2  1  0  0  0  0
  2  3  1  0  0  0  0
  3  4  2  0  0  0  0
  5  4  1  0  0  0  0
  6  5  2  0  0  0  0
  7  2  2  0  0  0  0
  7  6  1  0  0  0  0
  8  7  1  0  0  0  0
  9  8  2  0  0  0  0
 10  9  1  0  0  0  0
 11 10  2  0  0  0  0
 11 12  1  0  0  0  0
 12 13  2  0  0  0  0
 13  8  1  0  0  0  0
 13  1  1  0  0  0  0
 14  1  1  0  0  0  0
 14 19  2  0  0  0  0
 15 14  1  0  0  0  0
 16 15  2  0  0  0  0
 16 17  1  0  0  0  0
 17 18  2  0  0  0  0
 18 19  1  0  0  0  0
 20 15  1  0  0  0  0
 20 22  1  0  0  0  0
 21 20  2  0  0  0  0
M  END
>  <REMARK>
 VINA RESULT:      -9.1      2.197      2.678
  2 active torsions:
  status: ('A' for Active; 'I' for Inactive)
    1  A    between atoms: C1_2  and  C2_4 
    2  A    between atoms: C7_9  and  N1_10 

>  <TORSDO>
F 2

$$$$
../pdbqt/decoy.vina_out.19.pdbqt
 OpenBabel06052021513D

 22 25  0  0  0  0  0  0  0  0999 V2000
  -22.5660   65.2120   24.9000 N   0  0  0  0  0  0  0  0  0  0  0  0
  -21.6800   66.1910   25.2060 C   0  0  0  0  0  0  0  0  0  0  0  0
  -21.9320   67.4060   25.8500 C   0  0  0  0  0  0  0  0  0  0  0  0
  -20.8490   68.2800   26.0580 C   0  0  0  0  0  0  0  0  0  0  0  0
  -19.5510   67.9340   25.6190 C   0  0  0  0  0  0  0  0  0  0  0  0
  -19.3210   66.7100   24.9660 C   0  0  0  0  0  0  0  0  0  0  0  0
  -20.4100   65.8630   24.7740 C   0  0  0  0  0  0  0  0  0  0  0  0
  -20.5150   64.6310   24.1650 C   0  0  0  0  0  0  0  0  0  0  0  0
  -19.5650   63.8220   23.5450 C   0  0  0  0  0  0  0  0  0  0  0  0
  -20.0010   62.5990   23.0050 C   0  0  0  0  0  0  0  0  0  0  0  0
  -21.3590   62.2180   23.0940 C   0  0  0  0  0  0  0  0  0  0  0  0
  -22.2980   63.0550   23.7240 C   0  0  0  0  0  0  0  0  0  0  0  0
  -21.8450   64.2660   24.2530 C   0  0  0  0  0  0  0  0  0  0  0  0
  -23.9840   65.2180   25.1320 C   0  0  0  0  0  0  0  0  0  0  0  0
  -24.5510   64.6340   26.2950 C   0  0  0  0  0  0  0  0  0  0  0  0
  -25.9390   64.7420   26.4990 C   0  0  0  0  0  0  0  0  0  0  0  0
  -26.7500   65.3900   25.5650 C   0  0  0  0  0  0  0  0  0  0  0  0
  -26.1890   65.9410   24.4140 C   0  0  0  0  0  0  0  0  0  0  0  0
  -24.8140   65.8570   24.1980 C   0  0  0  0  0  0  0  0  0  0  0  0
  -23.7400   63.8870   27.2880 C   0  0  0  0  0  0  0  0  0  0  0  0
  -23.1450   64.4860   28.2230 O   0  0  0  0  0  0  0  0  0  0  0  0
  -23.5980   62.5090   27.1810 O   0  0  0  0  0  0  0  0  0  0  0  0
  1 14  1  0  0  0  0
  1  2  1  0  0  0  0
  2  3  2  0  0  0  0
  3  4  1  0  0  0  0
  5  4  2  0  0  0  0
  6  5  1  0  0  0  0
  7  6  2  0  0  0  0
  7  2  1  0  0  0  0
  8 13  1  0  0  0  0
  8  7  1  0  0  0  0
  9  8  2  0  0  0  0
 10 11  2  0  0  0  0
 10  9  1  0  0  0  0
 11 12  1  0  0  0  0
 12 13  2  0  0  0  0
 13  1  1  0  0  0  0
 14 15  2  0  0  0  0
 15 16  1  0  0  0  0
 15 20  1  0  0  0  0
 17 16  2  0  0  0  0
 18 17  1  0  0  0  0
 19 18  2  0  0  0  0
 19 14  1  0  0  0  0
 20 21  1  0  0  0  0
 22 20  2  0  0  0  0
M  END
>  <REMARK>
 VINA RESULT:      -8.0      2.445      5.907
  2 active torsions:
  status: ('A' for Active; 'I' for Inactive)
    1  A    between atoms: C1_2  and  C2_4 
    2  A    between atoms: C7_9  and  N1_10 

>  <TORSDO>
F 2

$$$$
../pdbqt/decoy.vina_out.19.pdbqt
 OpenBabel06052021513D

 22 25  0  0  0  0  0  0  0  0999 V2000
  -22.5550   65.2330   24.8250 N   0  0  0  0  0  0  0  0  0  0  0  0
  -21.8230   64.2660   24.2200 C   0  0  0  0  0  0  0  0  0  0  0  0
  -22.2690   63.0430   23.7110 C   0  0  0  0  0  0  0  0  0  0  0  0
  -21.3200   62.1850   23.1250 C   0  0  0  0  0  0  0  0  0  0  0  0
  -19.9580   62.5560   23.0640 C   0  0  0  0  0  0  0  0  0  0  0  0
  -19.5280   63.7870   23.5890 C   0  0  0  0  0  0  0  0  0  0  0  0
  -20.4880   64.6180   24.1620 C   0  0  0  0  0  0  0  0  0  0  0  0
  -20.3870   65.8520   24.7680 C   0  0  0  0  0  0  0  0  0  0  0  0
  -19.2920   66.6800   25.0010 C   0  0  0  0  0  0  0  0  0  0  0  0
  -19.5240   67.8990   25.6630 C   0  0  0  0  0  0  0  0  0  0  0  0
  -20.8280   68.2580   26.0710 C   0  0  0  0  0  0  0  0  0  0  0  0
  -21.9170   67.4010   25.8240 C   0  0  0  0  0  0  0  0  0  0  0  0
  -21.6650   66.1940   25.1670 C   0  0  0  0  0  0  0  0  0  0  0  0
  -23.9600   65.2020   25.1230 C   0  0  0  0  0  0  0  0  0  0  0  0
  -24.4610   64.5680   26.2890 C   0  0  0  0  0  0  0  0  0  0  0  0
  -25.8400   64.6420   26.5610 C   0  0  0  0  0  0  0  0  0  0  0  0
  -26.7060   65.3050   25.6880 C   0  0  0  0  0  0  0  0  0  0  0  0
  -26.2100   65.9050   24.5320 C   0  0  0  0  0  0  0  0  0  0  0  0
  -24.8440   65.8560   24.2510 C   0  0  0  0  0  0  0  0  0  0  0  0
  -23.5910   63.8050   27.2170 C   0  0  0  0  0  0  0  0  0  0  0  0
  -23.5340   62.5480   27.1680 O   0  0  0  0  0  0  0  0  0  0  0  0
  -22.8470   64.4700   28.1840 O   0  0  0  0  0  0  0  0  0  0  0  0
  1 14  1  0  0  0  0
  1 13  1  0  0  0  0
  2  1  1  0  0  0  0
  3  2  2  0  0  0  0
  4  3  1  0  0  0  0
  5  4  2  0  0  0  0
  5  6  1  0  0  0  0
  6  7  2  0  0  0  0
  7  2  1  0  0  0  0
  7  8  1  0  0  0  0
  8  9  2  0  0  0  0
  8 13  1  0  0  0  0
  9 10  1  0  0  0  0
 10 11  2  0  0  0  0
 12 11  1  0  0  0  0
 13 12  2  0  0  0  0
 14 15  2  0  0  0  0
 15 16  1  0  0  0  0
 15 20  1  0  0  0  0
 17 16  2  0  0  0  0
 18 17  1  0  0  0  0
 19 18  2  0  0  0  0
 19 14  1  0  0  0  0
 20 22  1  0  0  0  0
 21 20  2  0  0  0  0
M  END
>  <REMARK>
 VINA RESULT:      -7.9      2.437      5.586
  2 active torsions:
  status: ('A' for Active; 'I' for Inactive)
    1  A    between atoms: C1_2  and  C2_4 
    2  A    between atoms: C7_9  and  N1_10 

>  <TORSDO>
F 2

$$$$
../pdbqt/decoy.vina_out.19.pdbqt
 OpenBabel06052021513D

 22 25  0  0  0  0  0  0  0  0999 V2000
  -21.9430   64.5540   25.8150 N   0  0  0  0  0  0  0  0  0  0  0  0
  -23.2660   64.8200   25.6920 C   0  0  0  0  0  0  0  0  0  0  0  0
  -23.9240   65.4160   24.6120 C   0  0  0  0  0  0  0  0  0  0  0  0
  -25.3160   65.6000   24.7080 C   0  0  0  0  0  0  0  0  0  0  0  0
  -26.0170   65.1970   25.8670 C   0  0  0  0  0  0  0  0  0  0  0  0
  -25.3350   64.6070   26.9450 C   0  0  0  0  0  0  0  0  0  0  0  0
  -23.9570   64.4340   26.8240 C   0  0  0  0  0  0  0  0  0  0  0  0
  -23.0200   63.9170   27.6920 C   0  0  0  0  0  0  0  0  0  0  0  0
  -23.1400   63.3870   28.9750 C   0  0  0  0  0  0  0  0  0  0  0  0
  -21.9680   62.9400   29.6090 C   0  0  0  0  0  0  0  0  0  0  0  0
  -20.7180   63.0300   28.9560 C   0  0  0  0  0  0  0  0  0  0  0  0
  -20.6240   63.5700   27.6600 C   0  0  0  0  0  0  0  0  0  0  0  0
  -21.8010   64.0110   27.0480 C   0  0  0  0  0  0  0  0  0  0  0  0
  -20.9010   64.8640   24.8760 C   0  0  0  0  0  0  0  0  0  0  0  0
  -20.5150   63.9500   23.8620 C   0  0  0  0  0  0  0  0  0  0  0  0
  -19.5420   64.3470   22.9260 C   0  0  0  0  0  0  0  0  0  0  0  0
  -18.9470   65.6080   23.0060 C   0  0  0  0  0  0  0  0  0  0  0  0
  -19.3140   66.4920   24.0190 C   0  0  0  0  0  0  0  0  0  0  0  0
  -20.2870   66.1240   24.9480 C   0  0  0  0  0  0  0  0  0  0  0  0
  -21.0760   62.5790   23.7690 C   0  0  0  0  0  0  0  0  0  0  0  0
  -20.4640   61.5920   24.2550 O   0  0  0  0  0  0  0  0  0  0  0  0
  -22.2800   62.3610   23.1100 O   0  0  0  0  0  0  0  0  0  0  0  0
  1 13  1  0  0  0  0
  2  1  1  0  0  0  0
  2  7  2  0  0  0  0
  3  4  2  0  0  0  0
  3  2  1  0  0  0  0
  4  5  1  0  0  0  0
  5  6  2  0  0  0  0
  7  6  1  0  0  0  0
  7  8  1  0  0  0  0
  8  9  2  0  0  0  0
  9 10  1  0  0  0  0
 11 10  2  0  0  0  0
 12 11  1  0  0  0  0
 13 12  2  0  0  0  0
 13  8  1  0  0  0  0
 14 19  1  0  0  0  0
 14  1  1  0  0  0  0
 15 14  2  0  0  0  0
 16 17  2  0  0  0  0
 16 15  1  0  0  0  0
 17 18  1  0  0  0  0
 18 19  2  0  0  0  0
 20 15  1  0  0  0  0
 20 21  1  0  0  0  0
 22 20  2  0  0  0  0
M  END
>  <REMARK>
 VINA RESULT:      -7.6      2.881      4.766
  2 active torsions:
  status: ('A' for Active; 'I' for Inactive)
    1  A    between atoms: C1_2  and  C2_4 
    2  A    between atoms: C7_9  and  N1_10 

>  <TORSDO>
F 2

$$$$
../pdbqt/decoy.vina_out.19.pdbqt
 OpenBabel06052021513D

 22 25  0  0  0  0  0  0  0  0999 V2000
  -22.8990   65.1590   25.7530 N   0  0  0  0  0  0  0  0  0  0  0  0
  -23.4160   64.2910   26.6570 C   0  0  0  0  0  0  0  0  0  0  0  0
  -22.7240   63.4250   27.5080 C   0  0  0  0  0  0  0  0  0  0  0  0
  -23.4750   62.6030   28.3680 C   0  0  0  0  0  0  0  0  0  0  0  0
  -24.8870   62.6530   28.3570 C   0  0  0  0  0  0  0  0  0  0  0  0
  -25.5650   63.5240   27.4870 C   0  0  0  0  0  0  0  0  0  0  0  0
  -24.7970   64.3290   26.6480 C   0  0  0  0  0  0  0  0  0  0  0  0
  -25.1520   65.2530   25.6890 C   0  0  0  0  0  0  0  0  0  0  0  0
  -26.3970   65.6940   25.2450 C   0  0  0  0  0  0  0  0  0  0  0  0
  -26.4220   66.6620   24.2260 C   0  0  0  0  0  0  0  0  0  0  0  0
  -25.2190   67.1620   23.6800 C   0  0  0  0  0  0  0  0  0  0  0  0
  -23.9740   66.6990   24.1460 C   0  0  0  0  0  0  0  0  0  0  0  0
  -23.9710   65.7350   25.1580 C   0  0  0  0  0  0  0  0  0  0  0  0
  -21.5140   65.3580   25.4310 C   0  0  0  0  0  0  0  0  0  0  0  0
  -20.7090   66.2830   26.1460 C   0  0  0  0  0  0  0  0  0  0  0  0
  -19.3400   66.3730   25.8320 C   0  0  0  0  0  0  0  0  0  0  0  0
  -18.7860   65.5870   24.8200 C   0  0  0  0  0  0  0  0  0  0  0  0
  -19.5880   64.6980   24.1060 C   0  0  0  0  0  0  0  0  0  0  0  0
  -20.9440   64.5820   24.4110 C   0  0  0  0  0  0  0  0  0  0  0  0
  -21.2610   67.1790   27.1910 C   0  0  0  0  0  0  0  0  0  0  0  0
  -21.6100   66.7300   28.3140 O   0  0  0  0  0  0  0  0  0  0  0  0
  -21.4340   68.5330   26.9310 O   0  0  0  0  0  0  0  0  0  0  0  0
  1  2  1  0  0  0  0
  2  3  1  0  0  0  0
  3  4  2  0  0  0  0
  5  4  1  0  0  0  0
  6  5  2  0  0  0  0
  7  2  2  0  0  0  0
  7  6  1  0  0  0  0
  8  7  1  0  0  0  0
  9  8  1  0  0  0  0
 10  9  2  0  0  0  0
 11 12  2  0  0  0  0
 11 10  1  0  0  0  0
 12 13  1  0  0  0  0
 13  8  2  0  0  0  0
 13  1  1  0  0  0  0
 14  1  1  0  0  0  0
 14 15  2  0  0  0  0
 15 20  1  0  0  0  0
 16 15  1  0  0  0  0
 17 16  2  0  0  0  0
 18 19  2  0  0  0  0
 18 17  1  0  0  0  0
 19 14  1  0  0  0  0
 20 21  1  0  0  0  0
 22 20  2  0  0  0  0
M  END
>  <REMARK>
 VINA RESULT:      -7.6      1.765      2.219
  2 active torsions:
  status: ('A' for Active; 'I' for Inactive)
    1  A    between atoms: C1_2  and  C2_4 
    2  A    between atoms: C7_9  and  N1_10 

>  <TORSDO>
F 2

$$$$
../pdbqt/decoy.vina_out.19.pdbqt
 OpenBabel06052021513D

 22 25  0  0  0  0  0  0  0  0999 V2000
  -22.3270   64.5350   25.5650 N   0  0  0  0  0  0  0  0  0  0  0  0
  -21.7300   63.8960   24.5290 C   0  0  0  0  0  0  0  0  0  0  0  0
  -22.2930   62.9540   23.6630 C   0  0  0  0  0  0  0  0  0  0  0  0
  -21.4750   62.4140   22.6540 C   0  0  0  0  0  0  0  0  0  0  0  0
  -20.1240   62.8120   22.5330 C   0  0  0  0  0  0  0  0  0  0  0  0
  -19.5750   63.7550   23.4190 C   0  0  0  0  0  0  0  0  0  0  0  0
  -20.4070   64.2760   24.4080 C   0  0  0  0  0  0  0  0  0  0  0  0
  -20.1710   65.1820   25.4200 C   0  0  0  0  0  0  0  0  0  0  0  0
  -19.0230   65.8830   25.7840 C   0  0  0  0  0  0  0  0  0  0  0  0
  -19.1080   66.7450   26.8920 C   0  0  0  0  0  0  0  0  0  0  0  0
  -20.3220   66.8860   27.6010 C   0  0  0  0  0  0  0  0  0  0  0  0
  -21.4660   66.1650   27.2120 C   0  0  0  0  0  0  0  0  0  0  0  0
  -21.3600   65.3120   26.1100 C   0  0  0  0  0  0  0  0  0  0  0  0
  -23.6710   64.3580   26.0380 C   0  0  0  0  0  0  0  0  0  0  0  0
  -24.7580   65.0810   25.4820 C   0  0  0  0  0  0  0  0  0  0  0  0
  -26.0610   64.8040   25.9380 C   0  0  0  0  0  0  0  0  0  0  0  0
  -26.2800   63.8520   26.9370 C   0  0  0  0  0  0  0  0  0  0  0  0
  -25.2050   63.1630   27.4950 C   0  0  0  0  0  0  0  0  0  0  0  0
  -23.9080   63.4130   27.0480 C   0  0  0  0  0  0  0  0  0  0  0  0
  -24.5710   66.1400   24.4600 C   0  0  0  0  0  0  0  0  0  0  0  0
  -23.7510   67.0790   24.6390 O   0  0  0  0  0  0  0  0  0  0  0  0
  -25.3290   66.1280   23.2950 O   0  0  0  0  0  0  0  0  0  0  0  0
  1 14  1  0  0  0  0
  1 13  1  0  0  0  0
  2  1  1  0  0  0  0
  3  2  2  0  0  0  0
  4  3  1  0  0  0  0
  5  4  2  0  0  0  0
  5  6  1  0  0  0  0
  6  7  2  0  0  0  0
  7  2  1  0  0  0  0
  7  8  1  0  0  0  0
  8  9  2  0  0  0  0
  8 13  1  0  0  0  0
  9 10  1  0  0  0  0
 10 11  2  0  0  0  0
 12 11  1  0  0  0  0
 13 12  2  0  0  0  0
 14 19  2  0  0  0  0
 15 16  2  0  0  0  0
 15 14  1  0  0  0  0
 16 17  1  0  0  0  0
 17 18  2  0  0  0  0
 19 18  1  0  0  0  0
 20 21  1  0  0  0  0
 20 15  1  0  0  0  0
 22 20  2  0  0  0  0
M  END
>  <REMARK>
 VINA RESULT:      -7.6      2.367      5.771
  2 active torsions:
  status: ('A' for Active; 'I' for Inactive)
    1  A    between atoms: C1_2  and  C2_4 
    2  A    between atoms: C7_9  and  N1_10 

>  <TORSDO>
F 2

$$$$
