../pdbqt/decoy.vina_out.28.pdbqt
 OpenBabel06052021513D

 16 17  0  0  0  0  0  0  0  0999 V2000
  -27.1930   66.4680   23.8330 C   0  0  0  0  0  0  0  0  0  0  0  0
  -26.6570   67.1210   22.7550 N   0  0  0  0  0  0  0  0  0  0  0  0
  -25.3280   67.1560   22.7180 N   0  0  0  0  0  0  0  0  0  0  0  0
  -24.7680   66.3620   24.0590 S   0  0  0  0  0  0  0  0  0  0  0  0
  -26.2410   65.9410   24.7210 C   0  0  0  0  0  0  0  0  0  0  0  0
  -28.6550   66.4540   24.0560 C   0  0  0  0  0  0  0  0  0  0  0  0
  -29.4140   65.2450   23.9610 N   0  0  0  0  0  0  0  0  0  0  0  0
  -29.2610   67.5320   24.2900 O   0  0  0  0  0  0  0  0  0  0  0  0
  -28.8130   63.9870   23.8090 N   0  0  0  0  0  0  0  0  0  0  0  0
  -29.5680   63.2770   23.9350 H   0  0  0  0  0  0  0  0  0  0  0  0
  -28.1500   63.8640   24.6080 H   0  0  0  0  0  0  0  0  0  0  0  0
  -26.4170   65.1180   25.9300 C   0  0  0  0  0  0  0  0  0  0  0  0
  -25.3960   64.3700   26.5200 C   0  0  0  0  0  0  0  0  0  0  0  0
  -26.1010   63.7050   27.8760 S   0  0  0  0  0  0  0  0  0  0  0  0
  -27.6160   64.3550   27.7060 N   0  0  0  0  0  0  0  0  0  0  0  0
  -27.6080   65.0990   26.6050 N   0  0  0  0  0  0  0  0  0  0  0  0
  1  6  1  0  0  0  0
  1  5  2  0  0  0  0
  2  1  1  0  0  0  0
  3  2  2  0  0  0  0
  3  4  1  0  0  0  0
  4  5  1  0  0  0  0
  5 12  1  0  0  0  0
  6  8  2  0  0  0  0
  7  6  1  0  0  0  0
  9 10  1  0  0  0  0
  9  7  1  0  0  0  0
  9 11  1  0  0  0  0
 12 13  2  0  0  0  0
 12 16  1  0  0  0  0
 13 14  1  0  0  0  0
 15 14  1  0  0  0  0
 16 15  2  0  0  0  0
M  END
>  <MODEL>
1

>  <REMARK>
 VINA RESULT:      -6.4      0.000      0.000
  3 active torsions:
  status: ('A' for Active; 'I' for Inactive)
    1  A    between atoms: N1_1  and  N2_2 
       I    between atoms: N2_2  and  C1_3 
    2  A    between atoms: C1_3  and  C2_5 
    3  A    between atoms: C3_9  and  C4_10 

>  <TORSDO>
F 3

$$$$
../pdbqt/decoy.vina_out.28.pdbqt
 OpenBabel06052021513D

 16 17  0  0  0  0  0  0  0  0999 V2000
  -26.9430   65.2860   24.6800 C   0  0  0  0  0  0  0  0  0  0  0  0
  -26.0560   65.8920   23.8310 N   0  0  0  0  0  0  0  0  0  0  0  0
  -24.8310   66.0630   24.3190 N   0  0  0  0  0  0  0  0  0  0  0  0
  -24.8170   65.4590   25.8610 S   0  0  0  0  0  0  0  0  0  0  0  0
  -26.4030   64.9460   25.9320 C   0  0  0  0  0  0  0  0  0  0  0  0
  -28.3660   65.1380   24.3060 C   0  0  0  0  0  0  0  0  0  0  0  0
  -29.2130   66.2780   24.1270 N   0  0  0  0  0  0  0  0  0  0  0  0
  -28.8640   63.9890   24.1850 O   0  0  0  0  0  0  0  0  0  0  0  0
  -28.7230   67.5920   24.1370 N   0  0  0  0  0  0  0  0  0  0  0  0
  -28.7900   67.9450   23.1570 H   0  0  0  0  0  0  0  0  0  0  0  0
  -27.7050   67.5400   24.3680 H   0  0  0  0  0  0  0  0  0  0  0  0
  -27.0050   64.2230   27.0650 C   0  0  0  0  0  0  0  0  0  0  0  0
  -26.4380   63.0930   27.6590 C   0  0  0  0  0  0  0  0  0  0  0  0
  -27.4670   62.7280   28.9180 S   0  0  0  0  0  0  0  0  0  0  0  0
  -28.5570   63.9590   28.7080 N   0  0  0  0  0  0  0  0  0  0  0  0
  -28.1490   64.6760   27.6660 N   0  0  0  0  0  0  0  0  0  0  0  0
  1  5  2  0  0  0  0
  2  3  2  0  0  0  0
  2  1  1  0  0  0  0
  3  4  1  0  0  0  0
  4  5  1  0  0  0  0
  5 12  1  0  0  0  0
  6  1  1  0  0  0  0
  7  9  1  0  0  0  0
  7  6  1  0  0  0  0
  8  6  2  0  0  0  0
  9 11  1  0  0  0  0
 10  9  1  0  0  0  0
 12 13  2  0  0  0  0
 12 16  1  0  0  0  0
 13 14  1  0  0  0  0
 15 14  1  0  0  0  0
 16 15  2  0  0  0  0
M  END
>  <REMARK>
 VINA RESULT:      -6.1      1.824      2.046
  3 active torsions:
  status: ('A' for Active; 'I' for Inactive)
    1  A    between atoms: N1_1  and  N2_2 
       I    between atoms: N2_2  and  C1_3 
    2  A    between atoms: C1_3  and  C2_5 
    3  A    between atoms: C3_9  and  C4_10 

>  <TORSDO>
F 3

$$$$
../pdbqt/decoy.vina_out.28.pdbqt
 OpenBabel06052021513D

 16 17  0  0  0  0  0  0  0  0999 V2000
  -14.5090   63.8650   20.9630 C   0  0  0  0  0  0  0  0  0  0  0  0
  -13.4750   62.9890   21.1650 N   0  0  0  0  0  0  0  0  0  0  0  0
  -13.2340   62.6810   22.4350 N   0  0  0  0  0  0  0  0  0  0  0  0
  -14.3190   63.5140   23.3690 S   0  0  0  0  0  0  0  0  0  0  0  0
  -15.1430   64.2900   22.1420 C   0  0  0  0  0  0  0  0  0  0  0  0
  -14.8100   64.3780   19.6100 C   0  0  0  0  0  0  0  0  0  0  0  0
  -13.7730   64.8490   18.7420 N   0  0  0  0  0  0  0  0  0  0  0  0
  -16.0040   64.4500   19.2200 O   0  0  0  0  0  0  0  0  0  0  0  0
  -12.4120   64.7100   19.0480 N   0  0  0  0  0  0  0  0  0  0  0  0
  -12.2660   63.7130   19.3200 H   0  0  0  0  0  0  0  0  0  0  0  0
  -12.2280   65.2840   19.9030 H   0  0  0  0  0  0  0  0  0  0  0  0
  -16.3230   65.1500   22.3330 C   0  0  0  0  0  0  0  0  0  0  0  0
  -17.6130   64.6650   22.5600 C   0  0  0  0  0  0  0  0  0  0  0  0
  -18.5370   66.0340   22.7790 S   0  0  0  0  0  0  0  0  0  0  0  0
  -17.3400   67.1670   22.6020 N   0  0  0  0  0  0  0  0  0  0  0  0
  -16.2060   66.5130   22.3740 N   0  0  0  0  0  0  0  0  0  0  0  0
  1  2  1  0  0  0  0
  1  5  2  0  0  0  0
  2  3  2  0  0  0  0
  3  4  1  0  0  0  0
  5 12  1  0  0  0  0
  5  4  1  0  0  0  0
  6  1  1  0  0  0  0
  7  9  1  0  0  0  0
  7  6  1  0  0  0  0
  8  6  2  0  0  0  0
  9 10  1  0  0  0  0
  9 11  1  0  0  0  0
 12 16  1  0  0  0  0
 12 13  2  0  0  0  0
 13 14  1  0  0  0  0
 15 14  1  0  0  0  0
 16 15  2  0  0  0  0
M  END
>  <REMARK>
 VINA RESULT:      -6.1     11.321     12.945
  3 active torsions:
  status: ('A' for Active; 'I' for Inactive)
    1  A    between atoms: N1_1  and  N2_2 
       I    between atoms: N2_2  and  C1_3 
    2  A    between atoms: C1_3  and  C2_5 
    3  A    between atoms: C3_9  and  C4_10 

>  <TORSDO>
F 3

$$$$
../pdbqt/decoy.vina_out.28.pdbqt
 OpenBabel06052021513D

 16 17  0  0  0  0  0  0  0  0999 V2000
  -26.3540   66.1470   24.6160 C   0  0  0  0  0  0  0  0  0  0  0  0
  -27.7150   66.2460   24.7280 N   0  0  0  0  0  0  0  0  0  0  0  0
  -28.2710   65.4340   25.6220 N   0  0  0  0  0  0  0  0  0  0  0  0
  -27.0580   64.5420   26.3120 S   0  0  0  0  0  0  0  0  0  0  0  0
  -25.7720   65.1970   25.4730 C   0  0  0  0  0  0  0  0  0  0  0  0
  -25.6240   66.9090   23.5810 C   0  0  0  0  0  0  0  0  0  0  0  0
  -26.1290   67.0310   22.2480 N   0  0  0  0  0  0  0  0  0  0  0  0
  -24.5110   67.4280   23.8560 O   0  0  0  0  0  0  0  0  0  0  0  0
  -27.4050   66.5790   21.8800 N   0  0  0  0  0  0  0  0  0  0  0  0
  -27.6930   67.1400   21.0480 H   0  0  0  0  0  0  0  0  0  0  0  0
  -28.0580   66.8340   22.6550 H   0  0  0  0  0  0  0  0  0  0  0  0
  -24.3570   64.8610   25.7030 C   0  0  0  0  0  0  0  0  0  0  0  0
  -23.6860   65.0920   26.9070 C   0  0  0  0  0  0  0  0  0  0  0  0
  -22.1620   64.4660   26.6560 S   0  0  0  0  0  0  0  0  0  0  0  0
  -22.3710   63.9280   25.1020 N   0  0  0  0  0  0  0  0  0  0  0  0
  -23.6190   64.2160   24.7470 N   0  0  0  0  0  0  0  0  0  0  0  0
  1  2  1  0  0  0  0
  1  5  2  0  0  0  0
  2  3  2  0  0  0  0
  3  4  1  0  0  0  0
  5 12  1  0  0  0  0
  5  4  1  0  0  0  0
  6  8  2  0  0  0  0
  6  1  1  0  0  0  0
  7  6  1  0  0  0  0
  9  7  1  0  0  0  0
  9 11  1  0  0  0  0
 10  9  1  0  0  0  0
 12 13  2  0  0  0  0
 14 13  1  0  0  0  0
 15 14  1  0  0  0  0
 16 15  2  0  0  0  0
 16 12  1  0  0  0  0
M  END
>  <REMARK>
 VINA RESULT:      -5.9      2.693      3.626
  3 active torsions:
  status: ('A' for Active; 'I' for Inactive)
    1  A    between atoms: N1_1  and  N2_2 
       I    between atoms: N2_2  and  C1_3 
    2  A    between atoms: C1_3  and  C2_5 
    3  A    between atoms: C3_9  and  C4_10 

>  <TORSDO>
F 3

$$$$
../pdbqt/decoy.vina_out.28.pdbqt
 OpenBabel06052021513D

 16 17  0  0  0  0  0  0  0  0999 V2000
  -26.8510   64.9610   26.0900 C   0  0  0  0  0  0  0  0  0  0  0  0
  -26.3620   65.7670   25.0970 N   0  0  0  0  0  0  0  0  0  0  0  0
  -25.0400   65.9130   25.0860 N   0  0  0  0  0  0  0  0  0  0  0  0
  -24.4260   65.0270   26.3440 S   0  0  0  0  0  0  0  0  0  0  0  0
  -25.8650   64.4200   26.9320 C   0  0  0  0  0  0  0  0  0  0  0  0
  -28.3080   64.8050   26.2870 C   0  0  0  0  0  0  0  0  0  0  0  0
  -29.1750   64.4570   25.2030 N   0  0  0  0  0  0  0  0  0  0  0  0
  -28.8120   65.0270   27.4180 O   0  0  0  0  0  0  0  0  0  0  0  0
  -28.6920   64.0890   23.9380 N   0  0  0  0  0  0  0  0  0  0  0  0
  -27.7060   63.7740   24.0740 H   0  0  0  0  0  0  0  0  0  0  0  0
  -28.6530   64.9590   23.3590 H   0  0  0  0  0  0  0  0  0  0  0  0
  -25.9820   63.4600   28.0430 C   0  0  0  0  0  0  0  0  0  0  0  0
  -26.3830   63.8080   29.3350 C   0  0  0  0  0  0  0  0  0  0  0  0
  -26.4200   62.3600   30.1600 S   0  0  0  0  0  0  0  0  0  0  0  0
  -25.9600   61.3610   28.9200 N   0  0  0  0  0  0  0  0  0  0  0  0
  -25.7720   62.1220   27.8470 N   0  0  0  0  0  0  0  0  0  0  0  0
  1  6  1  0  0  0  0
  1  5  2  0  0  0  0
  2  1  1  0  0  0  0
  3  2  2  0  0  0  0
  3  4  1  0  0  0  0
  4  5  1  0  0  0  0
  5 12  1  0  0  0  0
  6  8  2  0  0  0  0
  7  6  1  0  0  0  0
  9 10  1  0  0  0  0
  9  7  1  0  0  0  0
 11  9  1  0  0  0  0
 12 13  2  0  0  0  0
 13 14  1  0  0  0  0
 15 14  1  0  0  0  0
 16 12  1  0  0  0  0
 16 15  2  0  0  0  0
M  END
>  <REMARK>
 VINA RESULT:      -5.9      2.432      2.849
  3 active torsions:
  status: ('A' for Active; 'I' for Inactive)
    1  A    between atoms: N1_1  and  N2_2 
       I    between atoms: N2_2  and  C1_3 
    2  A    between atoms: C1_3  and  C2_5 
    3  A    between atoms: C3_9  and  C4_10 

>  <TORSDO>
F 3

$$$$
../pdbqt/decoy.vina_out.28.pdbqt
 OpenBabel06052021513D

 16 17  0  0  0  0  0  0  0  0999 V2000
  -24.9840   66.1550   24.0460 C   0  0  0  0  0  0  0  0  0  0  0  0
  -25.0210   67.0530   23.0120 N   0  0  0  0  0  0  0  0  0  0  0  0
  -26.2200   67.5650   22.7500 N   0  0  0  0  0  0  0  0  0  0  0  0
  -27.2960   66.8960   23.8160 S   0  0  0  0  0  0  0  0  0  0  0  0
  -26.2290   65.9280   24.6580 C   0  0  0  0  0  0  0  0  0  0  0  0
  -23.7390   65.4260   24.3680 C   0  0  0  0  0  0  0  0  0  0  0  0
  -22.5400   66.1190   24.7300 N   0  0  0  0  0  0  0  0  0  0  0  0
  -23.7100   64.1710   24.2810 O   0  0  0  0  0  0  0  0  0  0  0  0
  -22.5070   67.5030   24.9540 N   0  0  0  0  0  0  0  0  0  0  0  0
  -23.4940   67.8400   24.9000 H   0  0  0  0  0  0  0  0  0  0  0  0
  -21.9980   67.9340   24.1490 H   0  0  0  0  0  0  0  0  0  0  0  0
  -26.5780   65.1100   25.8320 C   0  0  0  0  0  0  0  0  0  0  0  0
  -27.8030   64.4580   25.9910 C   0  0  0  0  0  0  0  0  0  0  0  0
  -27.6460   63.6290   27.4280 S   0  0  0  0  0  0  0  0  0  0  0  0
  -26.0950   64.0790   27.8010 N   0  0  0  0  0  0  0  0  0  0  0  0
  -25.6670   64.8740   26.8260 N   0  0  0  0  0  0  0  0  0  0  0  0
  1  6  1  0  0  0  0
  1  5  2  0  0  0  0
  2  1  1  0  0  0  0
  3  2  2  0  0  0  0
  3  4  1  0  0  0  0
  4  5  1  0  0  0  0
  5 12  1  0  0  0  0
  6  7  1  0  0  0  0
  7  9  1  0  0  0  0
  8  6  2  0  0  0  0
 10  9  1  0  0  0  0
 11  9  1  0  0  0  0
 12 13  2  0  0  0  0
 12 16  1  0  0  0  0
 13 14  1  0  0  0  0
 14 15  1  0  0  0  0
 16 15  2  0  0  0  0
M  END
>  <REMARK>
 VINA RESULT:      -5.8      2.752      3.779
  3 active torsions:
  status: ('A' for Active; 'I' for Inactive)
    1  A    between atoms: N1_1  and  N2_2 
       I    between atoms: N2_2  and  C1_3 
    2  A    between atoms: C1_3  and  C2_5 
    3  A    between atoms: C3_9  and  C4_10 

>  <TORSDO>
F 3

$$$$
../pdbqt/decoy.vina_out.28.pdbqt
 OpenBabel06052021513D

 16 17  0  0  0  0  0  0  0  0999 V2000
  -19.7760   66.8200   24.8860 C   0  0  0  0  0  0  0  0  0  0  0  0
  -18.7670   67.7390   25.0100 N   0  0  0  0  0  0  0  0  0  0  0  0
  -19.1160   68.8900   25.5750 N   0  0  0  0  0  0  0  0  0  0  0  0
  -20.7280   68.8020   25.9410 S   0  0  0  0  0  0  0  0  0  0  0  0
  -21.0160   67.2550   25.3830 C   0  0  0  0  0  0  0  0  0  0  0  0
  -19.5520   65.5450   24.1740 C   0  0  0  0  0  0  0  0  0  0  0  0
  -19.2070   65.5160   22.7850 N   0  0  0  0  0  0  0  0  0  0  0  0
  -19.7110   64.4540   24.7800 O   0  0  0  0  0  0  0  0  0  0  0  0
  -18.9060   66.6770   22.0570 N   0  0  0  0  0  0  0  0  0  0  0  0
  -18.0840   66.4490   21.4550 H   0  0  0  0  0  0  0  0  0  0  0  0
  -18.5850   67.3960   22.7440 H   0  0  0  0  0  0  0  0  0  0  0  0
  -22.2980   66.5410   25.5040 C   0  0  0  0  0  0  0  0  0  0  0  0
  -22.5810   65.6100   26.5060 C   0  0  0  0  0  0  0  0  0  0  0  0
  -24.1650   65.1720   26.2280 S   0  0  0  0  0  0  0  0  0  0  0  0
  -24.4560   66.1340   24.9100 N   0  0  0  0  0  0  0  0  0  0  0  0
  -23.3410   66.8140   24.6600 N   0  0  0  0  0  0  0  0  0  0  0  0
  1  2  1  0  0  0  0
  1  5  2  0  0  0  0
  2  3  2  0  0  0  0
  3  4  1  0  0  0  0
  5 12  1  0  0  0  0
  5  4  1  0  0  0  0
  6  8  2  0  0  0  0
  6  1  1  0  0  0  0
  7  6  1  0  0  0  0
  9 11  1  0  0  0  0
  9  7  1  0  0  0  0
 10  9  1  0  0  0  0
 12 13  2  0  0  0  0
 14 13  1  0  0  0  0
 15 14  1  0  0  0  0
 16 15  2  0  0  0  0
 16 12  1  0  0  0  0
M  END
>  <REMARK>
 VINA RESULT:      -5.6      5.751      7.126
  3 active torsions:
  status: ('A' for Active; 'I' for Inactive)
    1  A    between atoms: N1_1  and  N2_2 
       I    between atoms: N2_2  and  C1_3 
    2  A    between atoms: C1_3  and  C2_5 
    3  A    between atoms: C3_9  and  C4_10 

>  <TORSDO>
F 3

$$$$
../pdbqt/decoy.vina_out.28.pdbqt
 OpenBabel06052021513D

 16 17  0  0  0  0  0  0  0  0999 V2000
  -16.1940   64.1560   22.1780 C   0  0  0  0  0  0  0  0  0  0  0  0
  -16.7530   63.5470   23.2700 N   0  0  0  0  0  0  0  0  0  0  0  0
  -15.9080   62.8530   24.0260 N   0  0  0  0  0  0  0  0  0  0  0  0
  -14.4060   62.9720   23.3380 S   0  0  0  0  0  0  0  0  0  0  0  0
  -14.8120   63.9420   22.0420 C   0  0  0  0  0  0  0  0  0  0  0  0
  -17.0400   64.8620   21.1920 C   0  0  0  0  0  0  0  0  0  0  0  0
  -17.6240   66.1350   21.4870 N   0  0  0  0  0  0  0  0  0  0  0  0
  -17.2950   64.3210   20.0860 O   0  0  0  0  0  0  0  0  0  0  0  0
  -17.3110   66.8600   22.6460 N   0  0  0  0  0  0  0  0  0  0  0  0
  -17.8600   67.7470   22.6020 H   0  0  0  0  0  0  0  0  0  0  0  0
  -16.3030   67.1270   22.5800 H   0  0  0  0  0  0  0  0  0  0  0  0
  -13.8550   64.4840   21.0630 C   0  0  0  0  0  0  0  0  0  0  0  0
  -12.9860   65.5450   21.3280 C   0  0  0  0  0  0  0  0  0  0  0  0
  -12.0870   65.7010   19.9330 S   0  0  0  0  0  0  0  0  0  0  0  0
  -12.7740   64.4700   19.0610 N   0  0  0  0  0  0  0  0  0  0  0  0
  -13.7070   63.9130   19.8280 N   0  0  0  0  0  0  0  0  0  0  0  0
  1  2  1  0  0  0  0
  2  3  2  0  0  0  0
  4  3  1  0  0  0  0
  5  1  2  0  0  0  0
  5  4  1  0  0  0  0
  6  7  1  0  0  0  0
  6  1  1  0  0  0  0
  7  9  1  0  0  0  0
  8  6  2  0  0  0  0
 10  9  1  0  0  0  0
 11  9  1  0  0  0  0
 12 13  2  0  0  0  0
 12  5  1  0  0  0  0
 14 13  1  0  0  0  0
 15 16  2  0  0  0  0
 15 14  1  0  0  0  0
 16 12  1  0  0  0  0
M  END
>  <REMARK>
 VINA RESULT:      -5.6     11.347     13.034
  3 active torsions:
  status: ('A' for Active; 'I' for Inactive)
    1  A    between atoms: N1_1  and  N2_2 
       I    between atoms: N2_2  and  C1_3 
    2  A    between atoms: C1_3  and  C2_5 
    3  A    between atoms: C3_9  and  C4_10 

>  <TORSDO>
F 3

$$$$
../pdbqt/decoy.vina_out.28.pdbqt
 OpenBabel06052021513D

 16 17  0  0  0  0  0  0  0  0999 V2000
  -17.9590   66.3380   23.5770 C   0  0  0  0  0  0  0  0  0  0  0  0
  -17.0970   66.9790   22.7280 N   0  0  0  0  0  0  0  0  0  0  0  0
  -16.6170   66.2320   21.7380 N   0  0  0  0  0  0  0  0  0  0  0  0
  -17.2620   64.7140   21.8970 S   0  0  0  0  0  0  0  0  0  0  0  0
  -18.1920   64.9910   23.2540 C   0  0  0  0  0  0  0  0  0  0  0  0
  -18.4740   67.0190   24.7840 C   0  0  0  0  0  0  0  0  0  0  0  0
  -19.7910   67.5790   24.8200 N   0  0  0  0  0  0  0  0  0  0  0  0
  -17.7310   67.1540   25.7900 O   0  0  0  0  0  0  0  0  0  0  0  0
  -20.7220   67.3850   23.7900 N   0  0  0  0  0  0  0  0  0  0  0  0
  -20.8440   68.3090   23.3190 H   0  0  0  0  0  0  0  0  0  0  0  0
  -21.6370   67.1550   24.2410 H   0  0  0  0  0  0  0  0  0  0  0  0
  -19.1020   64.0080   23.8670 C   0  0  0  0  0  0  0  0  0  0  0  0
  -18.6720   62.8920   24.5890 C   0  0  0  0  0  0  0  0  0  0  0  0
  -20.0810   62.1740   25.1160 S   0  0  0  0  0  0  0  0  0  0  0  0
  -21.1610   63.2450   24.4600 N   0  0  0  0  0  0  0  0  0  0  0  0
  -20.4590   64.1790   23.8250 N   0  0  0  0  0  0  0  0  0  0  0  0
  1  6  1  0  0  0  0
  2  1  1  0  0  0  0
  3  4  1  0  0  0  0
  3  2  2  0  0  0  0
  4  5  1  0  0  0  0
  5  1  2  0  0  0  0
  5 12  1  0  0  0  0
  6  7  1  0  0  0  0
  6  8  2  0  0  0  0
  9 11  1  0  0  0  0
  9  7  1  0  0  0  0
 10  9  1  0  0  0  0
 12 13  2  0  0  0  0
 13 14  1  0  0  0  0
 15 14  1  0  0  0  0
 16 12  1  0  0  0  0
 16 15  2  0  0  0  0
M  END
>  <REMARK>
 VINA RESULT:      -5.4      7.773      8.747
  3 active torsions:
  status: ('A' for Active; 'I' for Inactive)
    1  A    between atoms: N1_1  and  N2_2 
       I    between atoms: N2_2  and  C1_3 
    2  A    between atoms: C1_3  and  C2_5 
    3  A    between atoms: C3_9  and  C4_10 

>  <TORSDO>
F 3

$$$$
