../pdbqt/decoy.vina_out.48.pdbqt
 OpenBabel06052021513D

 20 22  0  0  1  0  0  0  0  0999 V2000
  -28.5890   67.2100   23.8020 O   0  0  0  0  0  0  0  0  0  0  0  0
  -27.5130   66.6580   24.1560 C   0  0  0  0  0  0  0  0  0  0  0  0
  -27.5230   65.7930   25.1680 O   0  0  0  0  0  0  0  0  0  0  0  0
  -26.4250   65.1700   25.5970 C   0  0  1  0  0  0  0  0  0  0  0  0
  -25.1890   65.4220   24.9670 C   0  0  0  0  0  0  0  0  0  0  0  0
  -25.1440   66.3220   23.9030 C   0  0  0  0  0  0  0  0  0  0  0  0
  -26.3180   66.9490   23.4880 C   0  0  2  0  0  0  0  0  0  0  0  0
  -26.2950   67.8500   22.4300 O   0  0  0  0  0  0  0  0  0  0  0  0
  -24.0820   64.8150   25.3750 O   0  0  0  0  0  0  0  0  0  0  0  0
  -24.0660   63.9500   26.3830 C   0  0  0  0  0  0  0  0  0  0  0  0
  -22.9720   63.4160   26.7090 O   0  0  0  0  0  0  0  0  0  0  0  0
  -25.2550   63.6360   27.0730 C   0  0  0  0  0  0  0  0  0  0  0  0
  -25.2610   62.7230   28.1430 C   0  0  0  0  0  0  0  0  0  0  0  0
  -26.4490   62.4270   28.8110 C   0  0  0  0  0  0  0  0  0  0  0  0
  -26.4390   61.5220   29.8670 O   0  0  0  0  0  0  0  0  0  0  0  0
  -27.6440   63.0370   28.4230 C   0  0  0  0  0  0  0  0  0  0  0  0
  -28.8240   62.7360   29.0960 O   0  0  0  0  0  0  0  0  0  0  0  0
  -27.6610   63.9490   27.3610 C   0  0  0  0  0  0  0  0  0  0  0  0
  -28.8720   64.5360   27.0040 O   0  0  0  0  0  0  0  0  0  0  0  0
  -26.4640   64.2600   26.6720 C   0  0  0  0  0  0  0  0  0  0  0  0
  1  2  2  0  0  0  0
  2  3  1  0  0  0  0
  3  4  1  0  0  0  0
  4  5  1  1  0  0  0
  4 20  1  0  0  0  0
  5  9  1  0  0  0  0
  6  5  2  0  0  0  0
  7  8  1  1  0  0  0
  7  6  1  0  0  0  0
  7  2  1  0  0  0  0
  9 10  1  0  0  0  0
 10 11  2  0  0  0  0
 10 12  1  0  0  0  0
 12 13  1  0  0  0  0
 13 14  2  0  0  0  0
 14 15  1  0  0  0  0
 16 14  1  0  0  0  0
 16 17  1  0  0  0  0
 18 16  2  0  0  0  0
 19 18  1  0  0  0  0
 20 12  2  0  0  0  0
 20 18  1  0  0  0  0
M  END
>  <MODEL>
1

>  <REMARK>
 VINA RESULT:      -9.8      0.000      0.000
  0 active torsions:
  status: ('A' for Active; 'I' for Inactive)

>  <TORSDO>
F 0

$$$$
../pdbqt/decoy.vina_out.48.pdbqt
 OpenBabel06052021513D

 20 22  0  0  1  0  0  0  0  0999 V2000
  -28.5870   62.6490   28.8710 O   0  0  0  0  0  0  0  0  0  0  0  0
  -27.4880   62.9220   28.3190 C   0  0  0  0  0  0  0  0  0  0  0  0
  -27.4560   63.8050   27.3240 O   0  0  0  0  0  0  0  0  0  0  0  0
  -26.3300   64.1440   26.6940 C   0  0  1  0  0  0  0  0  0  0  0  0
  -25.1100   63.5550   27.0810 C   0  0  0  0  0  0  0  0  0  0  0  0
  -25.1090   62.6250   28.1210 C   0  0  0  0  0  0  0  0  0  0  0  0
  -26.3100   62.3030   28.7510 C   0  0  2  0  0  0  0  0  0  0  0  0
  -26.3300   61.3780   29.7900 O   0  0  0  0  0  0  0  0  0  0  0  0
  -23.9760   63.8740   26.4700 O   0  0  0  0  0  0  0  0  0  0  0  0
  -23.9190   64.7520   25.4750 C   0  0  0  0  0  0  0  0  0  0  0  0
  -22.8010   65.0010   24.9470 O   0  0  0  0  0  0  0  0  0  0  0  0
  -25.0900   65.3920   25.0200 C   0  0  0  0  0  0  0  0  0  0  0  0
  -25.0520   66.3250   23.9660 C   0  0  0  0  0  0  0  0  0  0  0  0
  -26.2230   66.9460   23.5320 C   0  0  0  0  0  0  0  0  0  0  0  0
  -26.1690   67.8660   22.4910 O   0  0  0  0  0  0  0  0  0  0  0  0
  -27.4440   66.6470   24.1400 C   0  0  0  0  0  0  0  0  0  0  0  0
  -28.6070   67.2710   23.7000 O   0  0  0  0  0  0  0  0  0  0  0  0
  -27.5050   65.7220   25.1900 C   0  0  0  0  0  0  0  0  0  0  0  0
  -28.7410   65.4500   25.7690 O   0  0  0  0  0  0  0  0  0  0  0  0
  -26.3250   65.0820   25.6420 C   0  0  0  0  0  0  0  0  0  0  0  0
  2  7  1  0  0  0  0
  2  1  2  0  0  0  0
  3  2  1  0  0  0  0
  4 20  1  6  0  0  0
  4  5  1  0  0  0  0
  4  3  1  0  0  0  0
  5  6  2  0  0  0  0
  6  7  1  0  0  0  0
  7  8  1  6  0  0  0
  9  5  1  0  0  0  0
 10  9  1  0  0  0  0
 11 10  2  0  0  0  0
 12 10  1  0  0  0  0
 12 20  2  0  0  0  0
 13 12  1  0  0  0  0
 14 13  2  0  0  0  0
 14 16  1  0  0  0  0
 15 14  1  0  0  0  0
 16 18  2  0  0  0  0
 17 16  1  0  0  0  0
 18 20  1  0  0  0  0
 18 19  1  0  0  0  0
M  END
>  <REMARK>
 VINA RESULT:      -9.7      0.755      5.276
  0 active torsions:
  status: ('A' for Active; 'I' for Inactive)

>  <TORSDO>
F 0

$$$$
../pdbqt/decoy.vina_out.48.pdbqt
 OpenBabel06052021513D

 20 22  0  0  1  0  0  0  0  0999 V2000
  -21.2610   67.0660   24.2970 O   0  0  0  0  0  0  0  0  0  0  0  0
  -22.0640   66.4710   25.0640 C   0  0  0  0  0  0  0  0  0  0  0  0
  -23.3430   66.3590   24.7140 O   0  0  0  0  0  0  0  0  0  0  0  0
  -24.2500   65.7430   25.4740 C   0  0  1  0  0  0  0  0  0  0  0  0
  -23.8590   65.1780   26.7050 C   0  0  0  0  0  0  0  0  0  0  0  0
  -22.5250   65.2780   27.1010 C   0  0  0  0  0  0  0  0  0  0  0  0
  -21.6130   65.9310   26.2740 C   0  0  2  0  0  0  0  0  0  0  0  0
  -20.2800   66.0410   26.6510 O   0  0  0  0  0  0  0  0  0  0  0  0
  -24.7410   64.5600   27.4800 O   0  0  0  0  0  0  0  0  0  0  0  0
  -26.0230   64.4360   27.1520 C   0  0  0  0  0  0  0  0  0  0  0  0
  -26.7970   63.8340   27.9440 O   0  0  0  0  0  0  0  0  0  0  0  0
  -26.5040   64.9700   25.9400 C   0  0  0  0  0  0  0  0  0  0  0  0
  -27.8580   64.8500   25.5730 C   0  0  0  0  0  0  0  0  0  0  0  0
  -28.3120   65.3860   24.3690 C   0  0  0  0  0  0  0  0  0  0  0  0
  -29.6530   65.2590   24.0210 O   0  0  0  0  0  0  0  0  0  0  0  0
  -27.4270   66.0470   23.5140 C   0  0  0  0  0  0  0  0  0  0  0  0
  -27.8890   66.5790   22.3150 O   0  0  0  0  0  0  0  0  0  0  0  0
  -26.0760   66.1780   23.8590 C   0  0  0  0  0  0  0  0  0  0  0  0
  -25.2240   66.8430   22.9820 O   0  0  0  0  0  0  0  0  0  0  0  0
  -25.5980   65.6400   25.0790 C   0  0  0  0  0  0  0  0  0  0  0  0
  1  2  2  0  0  0  0
  2  7  1  0  0  0  0
  3  2  1  0  0  0  0
  4  3  1  1  0  0  0
  4  5  1  0  0  0  0
  5  6  2  0  0  0  0
  5  9  1  0  0  0  0
  7  8  1  1  0  0  0
  7  6  1  0  0  0  0
 10  9  1  0  0  0  0
 10 11  2  0  0  0  0
 12 10  1  0  0  0  0
 13 12  1  0  0  0  0
 14 13  2  0  0  0  0
 15 14  1  0  0  0  0
 16 18  2  0  0  0  0
 16 14  1  0  0  0  0
 17 16  1  0  0  0  0
 18 20  1  0  0  0  0
 19 18  1  0  0  0  0
 20  4  1  0  0  0  0
 20 12  2  0  0  0  0
M  END
>  <REMARK>
 VINA RESULT:      -9.2      2.099      5.061
  0 active torsions:
  status: ('A' for Active; 'I' for Inactive)

>  <TORSDO>
F 0

$$$$
../pdbqt/decoy.vina_out.48.pdbqt
 OpenBabel06052021513D

 20 22  0  0  1  0  0  0  0  0999 V2000
  -24.2890   62.9780   29.4610 O   0  0  0  0  0  0  0  0  0  0  0  0
  -25.3250   63.1650   28.7690 C   0  0  0  0  0  0  0  0  0  0  0  0
  -25.2700   63.9720   27.7120 O   0  0  0  0  0  0  0  0  0  0  0  0
  -26.3250   64.2170   26.9340 C   0  0  1  0  0  0  0  0  0  0  0  0
  -27.5620   63.6060   27.2230 C   0  0  0  0  0  0  0  0  0  0  0  0
  -27.6540   62.7540   28.3240 C   0  0  0  0  0  0  0  0  0  0  0  0
  -26.5240   62.5270   29.1090 C   0  0  2  0  0  0  0  0  0  0  0  0
  -26.5940   61.6820   30.2100 O   0  0  0  0  0  0  0  0  0  0  0  0
  -28.6270   63.8330   26.4650 O   0  0  0  0  0  0  0  0  0  0  0  0
  -28.5970   64.6350   25.4050 C   0  0  0  0  0  0  0  0  0  0  0  0
  -29.6530   64.7980   24.7360 O   0  0  0  0  0  0  0  0  0  0  0  0
  -27.4030   65.2890   25.0400 C   0  0  0  0  0  0  0  0  0  0  0  0
  -27.3490   66.1420   23.9220 C   0  0  0  0  0  0  0  0  0  0  0  0
  -26.1570   66.7800   23.5780 C   0  0  0  0  0  0  0  0  0  0  0  0
  -26.1200   67.6200   22.4700 O   0  0  0  0  0  0  0  0  0  0  0  0
  -25.0050   66.5760   24.3420 C   0  0  0  0  0  0  0  0  0  0  0  0
  -23.8210   67.2170   23.9920 O   0  0  0  0  0  0  0  0  0  0  0  0
  -25.0370   65.7310   25.4580 C   0  0  0  0  0  0  0  0  0  0  0  0
  -23.8680   65.5540   26.1940 O   0  0  0  0  0  0  0  0  0  0  0  0
  -26.2390   65.0770   25.8210 C   0  0  0  0  0  0  0  0  0  0  0  0
  2  7  1  0  0  0  0
  2  1  2  0  0  0  0
  3  2  1  0  0  0  0
  4 20  1  1  0  0  0
  4  5  1  0  0  0  0
  4  3  1  0  0  0  0
  5  6  2  0  0  0  0
  6  7  1  0  0  0  0
  7  8  1  1  0  0  0
  9  5  1  0  0  0  0
 10  9  1  0  0  0  0
 11 10  2  0  0  0  0
 12 10  1  0  0  0  0
 12 20  2  0  0  0  0
 13 12  1  0  0  0  0
 14 13  2  0  0  0  0
 14 16  1  0  0  0  0
 15 14  1  0  0  0  0
 16 18  2  0  0  0  0
 17 16  1  0  0  0  0
 18 20  1  0  0  0  0
 18 19  1  0  0  0  0
M  END
>  <REMARK>
 VINA RESULT:      -9.0      1.375      6.143
  0 active torsions:
  status: ('A' for Active; 'I' for Inactive)

>  <TORSDO>
F 0

$$$$
../pdbqt/decoy.vina_out.48.pdbqt
 OpenBabel06052021513D

 20 22  0  0  1  0  0  0  0  0999 V2000
  -21.4680   65.0280   27.4770 O   0  0  0  0  0  0  0  0  0  0  0  0
  -22.7010   64.7960   27.5970 C   0  0  0  0  0  0  0  0  0  0  0  0
  -23.5370   65.1800   26.6350 O   0  0  0  0  0  0  0  0  0  0  0  0
  -24.8520   64.9680   26.6930 C   0  0  1  0  0  0  0  0  0  0  0  0
  -25.4040   64.3100   27.8110 C   0  0  0  0  0  0  0  0  0  0  0  0
  -24.5550   63.8940   28.8370 C   0  0  0  0  0  0  0  0  0  0  0  0
  -23.1860   64.1370   28.7320 C   0  0  2  0  0  0  0  0  0  0  0  0
  -22.3230   63.7310   29.7440 O   0  0  0  0  0  0  0  0  0  0  0  0
  -26.7090   64.0880   27.8930 O   0  0  0  0  0  0  0  0  0  0  0  0
  -27.5630   64.4630   26.9470 C   0  0  0  0  0  0  0  0  0  0  0  0
  -28.7890   64.2130   27.1010 O   0  0  0  0  0  0  0  0  0  0  0  0
  -27.1020   65.1270   25.7920 C   0  0  0  0  0  0  0  0  0  0  0  0
  -27.9890   65.5320   24.7780 C   0  0  0  0  0  0  0  0  0  0  0  0
  -27.5110   66.1880   23.6440 C   0  0  0  0  0  0  0  0  0  0  0  0
  -28.4000   66.5820   22.6500 O   0  0  0  0  0  0  0  0  0  0  0  0
  -26.1450   66.4480   23.5050 C   0  0  0  0  0  0  0  0  0  0  0  0
  -25.6780   67.1030   22.3710 O   0  0  0  0  0  0  0  0  0  0  0  0
  -25.2450   66.0530   24.5020 C   0  0  0  0  0  0  0  0  0  0  0  0
  -23.8920   66.3310   24.3280 O   0  0  0  0  0  0  0  0  0  0  0  0
  -25.7140   65.3870   25.6600 C   0  0  0  0  0  0  0  0  0  0  0  0
  1  2  2  0  0  0  0
  2  7  1  0  0  0  0
  3  4  1  0  0  0  0
  3  2  1  0  0  0  0
  4 20  1  1  0  0  0
  4  5  1  0  0  0  0
  5  9  1  0  0  0  0
  5  6  2  0  0  0  0
  7  6  1  0  0  0  0
  7  8  1  1  0  0  0
 10 11  2  0  0  0  0
 10  9  1  0  0  0  0
 12 10  1  0  0  0  0
 13 12  2  0  0  0  0
 14 13  1  0  0  0  0
 15 14  1  0  0  0  0
 16 14  2  0  0  0  0
 16 18  1  0  0  0  0
 17 16  1  0  0  0  0
 18 20  2  0  0  0  0
 19 18  1  0  0  0  0
 20 12  1  0  0  0  0
M  END
>  <REMARK>
 VINA RESULT:      -9.0      1.609      5.867
  0 active torsions:
  status: ('A' for Active; 'I' for Inactive)

>  <TORSDO>
F 0

$$$$
../pdbqt/decoy.vina_out.48.pdbqt
 OpenBabel06052021513D

 20 22  0  0  1  0  0  0  0  0999 V2000
  -22.3090   64.2960   28.3640 O   0  0  0  0  0  0  0  0  0  0  0  0
  -22.6530   64.9090   27.3190 C   0  0  0  0  0  0  0  0  0  0  0  0
  -23.9300   64.9010   26.9450 O   0  0  0  0  0  0  0  0  0  0  0  0
  -24.3670   65.5280   25.8510 C   0  0  1  0  0  0  0  0  0  0  0  0
  -23.4560   66.2350   25.0410 C   0  0  0  0  0  0  0  0  0  0  0  0
  -22.1090   66.2630   25.4060 C   0  0  0  0  0  0  0  0  0  0  0  0
  -21.6990   65.5940   26.5580 C   0  0  2  0  0  0  0  0  0  0  0  0
  -20.3610   65.6100   26.9380 O   0  0  0  0  0  0  0  0  0  0  0  0
  -23.8650   66.8660   23.9480 O   0  0  0  0  0  0  0  0  0  0  0  0
  -25.1340   66.8720   23.5550 C   0  0  0  0  0  0  0  0  0  0  0  0
  -25.4410   67.4960   22.5030 O   0  0  0  0  0  0  0  0  0  0  0  0
  -26.1160   66.1910   24.3020 C   0  0  0  0  0  0  0  0  0  0  0  0
  -27.4650   66.1850   23.9030 C   0  0  0  0  0  0  0  0  0  0  0  0
  -28.4210   65.5040   24.6580 C   0  0  0  0  0  0  0  0  0  0  0  0
  -29.7500   65.5080   24.2500 O   0  0  0  0  0  0  0  0  0  0  0  0
  -28.0450   64.8230   25.8180 C   0  0  0  0  0  0  0  0  0  0  0  0
  -29.0050   64.1470   26.5640 O   0  0  0  0  0  0  0  0  0  0  0  0
  -26.7080   64.8170   26.2330 C   0  0  0  0  0  0  0  0  0  0  0  0
  -26.3730   64.1260   27.3950 O   0  0  0  0  0  0  0  0  0  0  0  0
  -25.7260   65.5020   25.4780 C   0  0  0  0  0  0  0  0  0  0  0  0
  2  1  2  0  0  0  0
  3  2  1  0  0  0  0
  4  5  1  6  0  0  0
  4  3  1  0  0  0  0
  5  6  2  0  0  0  0
  6  7  1  0  0  0  0
  7  8  1  6  0  0  0
  7  2  1  0  0  0  0
  9  5  1  0  0  0  0
 10  9  1  0  0  0  0
 10 12  1  0  0  0  0
 11 10  2  0  0  0  0
 12 20  1  0  0  0  0
 13 12  2  0  0  0  0
 13 14  1  0  0  0  0
 14 16  2  0  0  0  0
 15 14  1  0  0  0  0
 16 18  1  0  0  0  0
 16 17  1  0  0  0  0
 18 19  1  0  0  0  0
 20  4  1  0  0  0  0
 20 18  2  0  0  0  0
M  END
>  <REMARK>
 VINA RESULT:      -8.6      2.046      4.847
  0 active torsions:
  status: ('A' for Active; 'I' for Inactive)

>  <TORSDO>
F 0

$$$$
../pdbqt/decoy.vina_out.48.pdbqt
 OpenBabel06052021513D

 20 22  0  0  1  0  0  0  0  0999 V2000
  -25.6210   67.3610   22.5000 O   0  0  0  0  0  0  0  0  0  0  0  0
  -26.0340   66.6390   23.4460 C   0  0  0  0  0  0  0  0  0  0  0  0
  -25.1880   66.2630   24.4020 O   0  0  0  0  0  0  0  0  0  0  0  0
  -25.5540   65.5000   25.4330 C   0  0  2  0  0  0  0  0  0  0  0  0
  -26.8900   65.0620   25.5360 C   0  0  0  0  0  0  0  0  0  0  0  0
  -27.8030   65.4400   24.5510 C   0  0  0  0  0  0  0  0  0  0  0  0
  -27.3740   66.2380   23.4920 C   0  0  2  0  0  0  0  0  0  0  0  0
  -28.2680   66.6250   22.5000 O   0  0  0  0  0  0  0  0  0  0  0  0
  -27.2800   64.3030   26.5520 O   0  0  0  0  0  0  0  0  0  0  0  0
  -26.4540   63.9140   27.5170 C   0  0  0  0  0  0  0  0  0  0  0  0
  -26.9030   63.1920   28.4480 O   0  0  0  0  0  0  0  0  0  0  0  0
  -25.0990   64.3030   27.4960 C   0  0  0  0  0  0  0  0  0  0  0  0
  -24.2070   63.9020   28.5080 C   0  0  0  0  0  0  0  0  0  0  0  0
  -22.8710   64.3000   28.4680 C   0  0  0  0  0  0  0  0  0  0  0  0
  -22.0020   63.8960   29.4760 O   0  0  0  0  0  0  0  0  0  0  0  0
  -22.4060   65.1000   27.4220 C   0  0  0  0  0  0  0  0  0  0  0  0
  -21.0720   65.4910   27.3900 O   0  0  0  0  0  0  0  0  0  0  0  0
  -23.2770   65.5100   26.4050 C   0  0  0  0  0  0  0  0  0  0  0  0
  -22.7760   66.3070   25.3790 O   0  0  0  0  0  0  0  0  0  0  0  0
  -24.6370   65.1160   26.4300 C   0  0  0  0  0  0  0  0  0  0  0  0
  1  2  2  0  0  0  0
  2  7  1  0  0  0  0
  2  3  1  0  0  0  0
  4  3  1  1  0  0  0
  4  5  1  0  0  0  0
  4 20  1  0  0  0  0
  5  9  1  0  0  0  0
  6  5  2  0  0  0  0
  7  8  1  6  0  0  0
  7  6  1  0  0  0  0
  9 10  1  0  0  0  0
 10 11  2  0  0  0  0
 12 10  1  0  0  0  0
 12 13  2  0  0  0  0
 14 13  1  0  0  0  0
 14 15  1  0  0  0  0
 16 14  2  0  0  0  0
 17 16  1  0  0  0  0
 18 20  2  0  0  0  0
 18 16  1  0  0  0  0
 19 18  1  0  0  0  0
 20 12  1  0  0  0  0
M  END
>  <REMARK>
 VINA RESULT:      -8.6      1.709      3.838
  0 active torsions:
  status: ('A' for Active; 'I' for Inactive)

>  <TORSDO>
F 0

$$$$
../pdbqt/decoy.vina_out.48.pdbqt
 OpenBabel06052021513D

 20 22  0  0  1  0  0  0  0  0999 V2000
  -25.8920   63.0380   29.9760 O   0  0  0  0  0  0  0  0  0  0  0  0
  -25.2700   63.6730   29.0830 C   0  0  0  0  0  0  0  0  0  0  0  0
  -25.9200   64.0810   27.9960 O   0  0  0  0  0  0  0  0  0  0  0  0
  -25.3280   64.7590   27.0110 C   0  0  1  0  0  0  0  0  0  0  0  0
  -23.9560   65.0680   27.1050 C   0  0  0  0  0  0  0  0  0  0  0  0
  -23.2460   64.6550   28.2320 C   0  0  0  0  0  0  0  0  0  0  0  0
  -23.9070   63.9500   29.2360 C   0  0  2  0  0  0  0  0  0  0  0  0
  -23.2170   63.5300   30.3680 O   0  0  0  0  0  0  0  0  0  0  0  0
  -23.3430   65.7400   26.1390 O   0  0  0  0  0  0  0  0  0  0  0  0
  -23.9700   66.1570   25.0440 C   0  0  0  0  0  0  0  0  0  0  0  0
  -23.3150   66.7910   24.1730 O   0  0  0  0  0  0  0  0  0  0  0  0
  -25.3430   65.8930   24.8640 C   0  0  0  0  0  0  0  0  0  0  0  0
  -26.0260   66.3260   23.7120 C   0  0  0  0  0  0  0  0  0  0  0  0
  -27.3850   66.0540   23.5550 C   0  0  0  0  0  0  0  0  0  0  0  0
  -28.0460   66.4880   22.4110 O   0  0  0  0  0  0  0  0  0  0  0  0
  -28.0800   65.3500   24.5410 C   0  0  0  0  0  0  0  0  0  0  0  0
  -29.4350   65.0830   24.3750 O   0  0  0  0  0  0  0  0  0  0  0  0
  -27.4200   64.9100   25.6950 C   0  0  0  0  0  0  0  0  0  0  0  0
  -28.1470   64.2110   26.6550 O   0  0  0  0  0  0  0  0  0  0  0  0
  -26.0400   65.1780   25.8700 C   0  0  0  0  0  0  0  0  0  0  0  0
  2  7  1  0  0  0  0
  2  1  2  0  0  0  0
  3  2  1  0  0  0  0
  4 20  1  6  0  0  0
  4  5  1  0  0  0  0
  4  3  1  0  0  0  0
  5  6  2  0  0  0  0
  6  7  1  0  0  0  0
  7  8  1  6  0  0  0
  9  5  1  0  0  0  0
 10  9  1  0  0  0  0
 11 10  2  0  0  0  0
 12 10  1  0  0  0  0
 12 20  2  0  0  0  0
 13 12  1  0  0  0  0
 14 13  2  0  0  0  0
 14 16  1  0  0  0  0
 15 14  1  0  0  0  0
 16 18  2  0  0  0  0
 17 16  1  0  0  0  0
 18 20  1  0  0  0  0
 18 19  1  0  0  0  0
M  END
>  <REMARK>
 VINA RESULT:      -8.2      1.777      5.184
  0 active torsions:
  status: ('A' for Active; 'I' for Inactive)

>  <TORSDO>
F 0

$$$$
../pdbqt/decoy.vina_out.48.pdbqt
 OpenBabel06052021513D

 20 22  0  0  1  0  0  0  0  0999 V2000
  -28.8910   65.1370   24.2010 O   0  0  0  0  0  0  0  0  0  0  0  0
  -27.6770   65.4600   24.2930 C   0  0  0  0  0  0  0  0  0  0  0  0
  -26.9780   65.0880   25.3620 O   0  0  0  0  0  0  0  0  0  0  0  0
  -25.6900   65.3920   25.5270 C   0  0  2  0  0  0  0  0  0  0  0  0
  -25.0180   66.1390   24.5380 C   0  0  0  0  0  0  0  0  0  0  0  0
  -25.7220   66.5450   23.4030 C   0  0  0  0  0  0  0  0  0  0  0  0
  -27.0670   66.2030   23.2750 C   0  0  2  0  0  0  0  0  0  0  0  0
  -27.7860   66.5980   22.1520 O   0  0  0  0  0  0  0  0  0  0  0  0
  -23.7380   66.4560   24.6770 O   0  0  0  0  0  0  0  0  0  0  0  0
  -23.0200   66.0960   25.7360 C   0  0  0  0  0  0  0  0  0  0  0  0
  -21.8070   66.4370   25.7920 O   0  0  0  0  0  0  0  0  0  0  0  0
  -23.6080   65.3470   26.7750 C   0  0  0  0  0  0  0  0  0  0  0  0
  -22.8660   64.9560   27.9050 C   0  0  0  0  0  0  0  0  0  0  0  0
  -23.4680   64.2150   28.9220 C   0  0  0  0  0  0  0  0  0  0  0  0
  -22.7210   63.8350   30.0320 O   0  0  0  0  0  0  0  0  0  0  0  0
  -24.8130   63.8540   28.8270 C   0  0  0  0  0  0  0  0  0  0  0  0
  -25.4050   63.1150   29.8460 O   0  0  0  0  0  0  0  0  0  0  0  0
  -25.5700   64.2330   27.7110 C   0  0  0  0  0  0  0  0  0  0  0  0
  -26.9090   63.8540   27.6530 O   0  0  0  0  0  0  0  0  0  0  0  0
  -24.9740   64.9850   26.6700 C   0  0  0  0  0  0  0  0  0  0  0  0
  1  2  2  0  0  0  0
  2  3  1  0  0  0  0
  3  4  1  0  0  0  0
  4  5  1  6  0  0  0
  4 20  1  0  0  0  0
  5  9  1  0  0  0  0
  6  5  2  0  0  0  0
  7  8  1  1  0  0  0
  7  6  1  0  0  0  0
  7  2  1  0  0  0  0
  9 10  1  0  0  0  0
 10 11  2  0  0  0  0
 10 12  1  0  0  0  0
 12 13  1  0  0  0  0
 13 14  2  0  0  0  0
 14 15  1  0  0  0  0
 16 14  1  0  0  0  0
 16 17  1  0  0  0  0
 18 16  2  0  0  0  0
 19 18  1  0  0  0  0
 20 12  2  0  0  0  0
 20 18  1  0  0  0  0
M  END
>  <REMARK>
 VINA RESULT:      -8.2      1.825      2.405
  0 active torsions:
  status: ('A' for Active; 'I' for Inactive)

>  <TORSDO>
F 0

$$$$
