../pdbqt/decoy.vina_out.66.pdbqt
 OpenBabel06052021513D

 15 15  0  0  1  0  0  0  0  0999 V2000
  -27.3430   64.6960   26.1000 C   0  0  0  0  0  0  0  0  0  0  0  0
  -28.0630   65.0990   24.9400 C   0  0  0  0  0  0  0  0  0  0  0  0
  -29.3940   64.7510   24.7420 O   0  0  0  0  0  0  0  0  0  0  0  0
  -27.4560   65.8460   23.9810 N   0  0  0  0  0  0  0  0  0  0  0  0
  -26.1630   66.2450   24.0670 C   0  0  0  0  0  0  0  0  0  0  0  0
  -25.6320   66.9770   23.0880 C   0  0  0  0  0  0  0  0  0  0  0  0
  -25.4060   65.8770   25.1820 C   0  0  0  0  0  0  0  0  0  0  0  0
  -25.9860   65.1090   26.1940 C   0  0  0  0  0  0  0  0  0  0  0  0
  -25.1850   64.7720   27.2820 O   0  0  0  0  0  0  0  0  0  0  0  0
  -27.9280   63.9460   27.0750 C   0  0  1  0  0  0  0  0  0  0  0  0
  -29.0700   64.4160   27.7330 O   0  0  0  0  0  0  0  0  0  0  0  0
  -29.8320   63.8190   28.0210 H   0  0  0  0  0  0  0  0  0  0  0  0
  -27.3900   62.6920   27.4170 O   0  0  0  0  0  0  0  0  0  0  0  0
  -27.1140   62.2450   28.7420 C   0  0  0  0  0  0  0  0  0  0  0  0
  -25.7430   61.5830   28.8160 C   0  0  0  0  0  0  0  0  0  0  0  0
  1  8  2  0  0  0  0
  1 10  1  0  0  0  0
  2  1  1  0  0  0  0
  3  2  2  0  0  0  0
  4  5  1  0  0  0  0
  4  2  1  0  0  0  0
  5  7  1  0  0  0  0
  6  5  2  0  0  0  0
  7  8  1  0  0  0  0
  8  9  1  0  0  0  0
 10 13  1  6  0  0  0
 10 11  1  0  0  0  0
 11 12  1  0  0  0  0
 13 14  1  0  0  0  0
 14 15  1  0  0  0  0
M  END
>  <MODEL>
1

>  <REMARK>
 VINA RESULT:      -6.1      0.000      0.000
  4 active torsions:
  status: ('A' for Active; 'I' for Inactive)
    1  A    between atoms: O1_2  and  C1_3 
    2  A    between atoms: C1_3  and  O2_4 
    3  A    between atoms: C1_3  and  C4_7 
    4  A    between atoms: O2_4  and  C2_5 

>  <TORSDO>
F 4

$$$$
../pdbqt/decoy.vina_out.66.pdbqt
 OpenBabel06052021513D

 15 15  0  0  1  0  0  0  0  0999 V2000
  -25.3240   66.0390   24.6160 C   0  0  0  0  0  0  0  0  0  0  0  0
  -25.9980   66.5780   23.4830 C   0  0  0  0  0  0  0  0  0  0  0  0
  -25.3180   67.2490   22.4730 O   0  0  0  0  0  0  0  0  0  0  0  0
  -27.3440   66.4460   23.3580 N   0  0  0  0  0  0  0  0  0  0  0  0
  -28.1100   65.8120   24.2800 C   0  0  0  0  0  0  0  0  0  0  0  0
  -29.4260   65.7200   24.0930 C   0  0  0  0  0  0  0  0  0  0  0  0
  -27.5040   65.2650   25.4140 C   0  0  0  0  0  0  0  0  0  0  0  0
  -26.1230   65.3750   25.5860 C   0  0  0  0  0  0  0  0  0  0  0  0
  -25.5740   64.8110   26.7350 O   0  0  0  0  0  0  0  0  0  0  0  0
  -23.9750   66.1580   24.7650 C   0  0  1  0  0  0  0  0  0  0  0  0
  -23.3310   67.3470   24.4050 O   0  0  0  0  0  0  0  0  0  0  0  0
  -23.8110   68.2280   24.2900 H   0  0  0  0  0  0  0  0  0  0  0  0
  -23.2280   65.0890   25.2900 O   0  0  0  0  0  0  0  0  0  0  0  0
  -22.8100   63.9370   24.5620 C   0  0  0  0  0  0  0  0  0  0  0  0
  -22.3080   62.8510   25.5080 C   0  0  0  0  0  0  0  0  0  0  0  0
  1 10  1  0  0  0  0
  1  8  2  0  0  0  0
  2  1  1  0  0  0  0
  3  2  2  0  0  0  0
  4  2  1  0  0  0  0
  4  5  2  0  0  0  0
  5  7  1  0  0  0  0
  6  5  1  0  0  0  0
  7  8  1  0  0  0  0
  8  9  1  0  0  0  0
 10 11  1  1  0  0  0
 10 13  1  0  0  0  0
 12 11  1  0  0  0  0
 14 13  1  0  0  0  0
 14 15  1  0  0  0  0
M  END
>  <REMARK>
 VINA RESULT:      -6.0      2.590      4.153
  4 active torsions:
  status: ('A' for Active; 'I' for Inactive)
    1  A    between atoms: O1_2  and  C1_3 
    2  A    between atoms: C1_3  and  O2_4 
    3  A    between atoms: C1_3  and  C4_7 
    4  A    between atoms: O2_4  and  C2_5 

>  <TORSDO>
F 4

$$$$
../pdbqt/decoy.vina_out.66.pdbqt
 OpenBabel06052021513D

 15 15  0  0  1  0  0  0  0  0999 V2000
  -27.3030   64.7040   26.2050 C   0  0  0  0  0  0  0  0  0  0  0  0
  -25.9400   65.1100   26.2660 C   0  0  0  0  0  0  0  0  0  0  0  0
  -25.1210   64.7790   27.3400 O   0  0  0  0  0  0  0  0  0  0  0  0
  -25.3960   65.8440   25.2600 N   0  0  0  0  0  0  0  0  0  0  0  0
  -26.0990   66.2240   24.1650 C   0  0  0  0  0  0  0  0  0  0  0  0
  -25.5010   66.9440   23.2160 C   0  0  0  0  0  0  0  0  0  0  0  0
  -27.4410   65.8570   24.0500 C   0  0  0  0  0  0  0  0  0  0  0  0
  -28.0440   65.1020   25.0590 C   0  0  0  0  0  0  0  0  0  0  0  0
  -29.3850   64.7640   24.8920 O   0  0  0  0  0  0  0  0  0  0  0  0
  -27.8720   63.9690   27.2010 C   0  0  1  0  0  0  0  0  0  0  0  0
  -28.9360   64.4940   27.9410 O   0  0  0  0  0  0  0  0  0  0  0  0
  -29.7980   64.8170   27.5260 H   0  0  0  0  0  0  0  0  0  0  0  0
  -27.3970   62.6750   27.4800 O   0  0  0  0  0  0  0  0  0  0  0  0
  -27.0340   62.1890   28.7710 C   0  0  0  0  0  0  0  0  0  0  0  0
  -25.6390   61.5760   28.7460 C   0  0  0  0  0  0  0  0  0  0  0  0
  1  2  1  0  0  0  0
  1 10  1  0  0  0  0
  2  3  2  0  0  0  0
  4  2  1  0  0  0  0
  5  4  1  0  0  0  0
  6  5  2  0  0  0  0
  7  5  1  0  0  0  0
  7  8  1  0  0  0  0
  8  1  2  0  0  0  0
  9  8  1  0  0  0  0
 10 13  1  6  0  0  0
 10 11  1  0  0  0  0
 12 11  1  0  0  0  0
 13 14  1  0  0  0  0
 15 14  1  0  0  0  0
M  END
>  <REMARK>
 VINA RESULT:      -6.0      0.749      2.262
  4 active torsions:
  status: ('A' for Active; 'I' for Inactive)
    1  A    between atoms: O1_2  and  C1_3 
    2  A    between atoms: C1_3  and  O2_4 
    3  A    between atoms: C1_3  and  C4_7 
    4  A    between atoms: O2_4  and  C2_5 

>  <TORSDO>
F 4

$$$$
../pdbqt/decoy.vina_out.66.pdbqt
 OpenBabel06052021513D

 15 15  0  0  1  0  0  0  0  0999 V2000
  -25.2690   66.0030   24.6570 C   0  0  0  0  0  0  0  0  0  0  0  0
  -26.0640   65.3450   25.6390 C   0  0  0  0  0  0  0  0  0  0  0  0
  -25.5080   64.8030   26.7920 O   0  0  0  0  0  0  0  0  0  0  0  0
  -27.4070   65.2280   25.4690 N   0  0  0  0  0  0  0  0  0  0  0  0
  -28.0570   65.7180   24.3850 C   0  0  0  0  0  0  0  0  0  0  0  0
  -29.3770   65.5680   24.2840 C   0  0  0  0  0  0  0  0  0  0  0  0
  -27.3300   66.3720   23.3880 C   0  0  0  0  0  0  0  0  0  0  0  0
  -25.9470   66.5170   23.5170 C   0  0  0  0  0  0  0  0  0  0  0  0
  -25.2730   67.1780   22.4930 O   0  0  0  0  0  0  0  0  0  0  0  0
  -23.9210   66.1330   24.8030 C   0  0  1  0  0  0  0  0  0  0  0  0
  -23.2930   67.3390   24.4770 O   0  0  0  0  0  0  0  0  0  0  0  0
  -22.3100   67.5150   24.6320 H   0  0  0  0  0  0  0  0  0  0  0  0
  -23.1590   65.0560   25.2900 O   0  0  0  0  0  0  0  0  0  0  0  0
  -22.8280   63.8790   24.5560 C   0  0  0  0  0  0  0  0  0  0  0  0
  -22.2240   62.8210   25.4730 C   0  0  0  0  0  0  0  0  0  0  0  0
  1 10  1  0  0  0  0
  1  2  1  0  0  0  0
  2  3  2  0  0  0  0
  4  2  1  0  0  0  0
  5  4  2  0  0  0  0
  6  5  1  0  0  0  0
  7  8  1  0  0  0  0
  7  5  1  0  0  0  0
  8  1  2  0  0  0  0
  9  8  1  0  0  0  0
 10 11  1  1  0  0  0
 10 13  1  0  0  0  0
 11 12  1  0  0  0  0
 14 13  1  0  0  0  0
 14 15  1  0  0  0  0
M  END
>  <REMARK>
 VINA RESULT:      -6.0      2.687      4.401
  4 active torsions:
  status: ('A' for Active; 'I' for Inactive)
    1  A    between atoms: O1_2  and  C1_3 
    2  A    between atoms: C1_3  and  O2_4 
    3  A    between atoms: C1_3  and  C4_7 
    4  A    between atoms: O2_4  and  C2_5 

>  <TORSDO>
F 4

$$$$
../pdbqt/decoy.vina_out.66.pdbqt
 OpenBabel06052021513D

 15 15  0  0  1  0  0  0  0  0999 V2000
  -25.0630   65.9220   24.7090 C   0  0  0  0  0  0  0  0  0  0  0  0
  -25.8950   65.2600   25.6560 C   0  0  0  0  0  0  0  0  0  0  0  0
  -25.3680   64.5500   26.7280 O   0  0  0  0  0  0  0  0  0  0  0  0
  -27.2470   65.3060   25.5320 N   0  0  0  0  0  0  0  0  0  0  0  0
  -27.8710   65.9680   24.5270 C   0  0  0  0  0  0  0  0  0  0  0  0
  -29.2030   65.9710   24.4670 C   0  0  0  0  0  0  0  0  0  0  0  0
  -27.1070   66.6350   23.5670 C   0  0  0  0  0  0  0  0  0  0  0  0
  -25.7130   66.6160   23.6520 C   0  0  0  0  0  0  0  0  0  0  0  0
  -25.0020   67.2980   22.6680 O   0  0  0  0  0  0  0  0  0  0  0  0
  -23.7050   65.8910   24.8100 C   0  0  1  0  0  0  0  0  0  0  0  0
  -23.0140   64.6880   24.6220 O   0  0  0  0  0  0  0  0  0  0  0  0
  -22.7860   64.0540   25.3730 H   0  0  0  0  0  0  0  0  0  0  0  0
  -22.9920   67.0690   25.0940 O   0  0  0  0  0  0  0  0  0  0  0  0
  -21.6600   67.1280   25.6000 C   0  0  0  0  0  0  0  0  0  0  0  0
  -21.1420   68.5610   25.5950 C   0  0  0  0  0  0  0  0  0  0  0  0
  1 10  1  0  0  0  0
  1  2  1  0  0  0  0
  2  3  2  0  0  0  0
  4  2  1  0  0  0  0
  5  4  2  0  0  0  0
  6  5  1  0  0  0  0
  7  8  1  0  0  0  0
  7  5  1  0  0  0  0
  8  1  2  0  0  0  0
  9  8  1  0  0  0  0
 10 11  1  6  0  0  0
 10 13  1  0  0  0  0
 11 12  1  0  0  0  0
 13 14  1  0  0  0  0
 15 14  1  0  0  0  0
M  END
>  <REMARK>
 VINA RESULT:      -5.7      2.771      5.064
  4 active torsions:
  status: ('A' for Active; 'I' for Inactive)
    1  A    between atoms: O1_2  and  C1_3 
    2  A    between atoms: C1_3  and  O2_4 
    3  A    between atoms: C1_3  and  C4_7 
    4  A    between atoms: O2_4  and  C2_5 

>  <TORSDO>
F 4

$$$$
../pdbqt/decoy.vina_out.66.pdbqt
 OpenBabel06052021513D

 15 15  0  0  1  0  0  0  0  0999 V2000
  -26.1480   64.5530   26.5740 C   0  0  0  0  0  0  0  0  0  0  0  0
  -27.5700   64.4820   26.5830 C   0  0  0  0  0  0  0  0  0  0  0  0
  -28.2610   63.7100   27.5090 O   0  0  0  0  0  0  0  0  0  0  0  0
  -28.2980   65.1780   25.6720 N   0  0  0  0  0  0  0  0  0  0  0  0
  -27.7320   65.9640   24.7230 C   0  0  0  0  0  0  0  0  0  0  0  0
  -28.5080   66.6190   23.8600 C   0  0  0  0  0  0  0  0  0  0  0  0
  -26.3400   66.0710   24.6640 C   0  0  0  0  0  0  0  0  0  0  0  0
  -25.5490   65.3740   25.5780 C   0  0  0  0  0  0  0  0  0  0  0  0
  -24.1680   65.5180   25.4720 O   0  0  0  0  0  0  0  0  0  0  0  0
  -25.3940   63.8640   27.4750 C   0  0  1  0  0  0  0  0  0  0  0  0
  -24.5690   64.5510   28.3720 O   0  0  0  0  0  0  0  0  0  0  0  0
  -24.4080   65.5470   28.3290 H   0  0  0  0  0  0  0  0  0  0  0  0
  -25.4510   62.4590   27.5130 O   0  0  0  0  0  0  0  0  0  0  0  0
  -25.2840   61.6560   28.6790 C   0  0  0  0  0  0  0  0  0  0  0  0
  -26.4060   61.9140   29.6790 C   0  0  0  0  0  0  0  0  0  0  0  0
  1  2  1  0  0  0  0
  1 10  1  0  0  0  0
  2  3  2  0  0  0  0
  4  2  1  0  0  0  0
  5  4  1  0  0  0  0
  6  5  2  0  0  0  0
  7  5  1  0  0  0  0
  7  8  1  0  0  0  0
  8  1  2  0  0  0  0
  9  8  1  0  0  0  0
 10 13  1  1  0  0  0
 10 11  1  0  0  0  0
 12 11  1  0  0  0  0
 13 14  1  0  0  0  0
 14 15  1  0  0  0  0
M  END
>  <REMARK>
 VINA RESULT:      -5.6      1.399      2.296
  4 active torsions:
  status: ('A' for Active; 'I' for Inactive)
    1  A    between atoms: O1_2  and  C1_3 
    2  A    between atoms: C1_3  and  O2_4 
    3  A    between atoms: C1_3  and  C4_7 
    4  A    between atoms: O2_4  and  C2_5 

>  <TORSDO>
F 4

$$$$
../pdbqt/decoy.vina_out.66.pdbqt
 OpenBabel06052021513D

 15 15  0  0  1  0  0  0  0  0999 V2000
  -26.2260   64.5080   26.6200 C   0  0  0  0  0  0  0  0  0  0  0  0
  -27.4480   64.7370   25.9250 C   0  0  0  0  0  0  0  0  0  0  0  0
  -28.6400   64.1400   26.3190 O   0  0  0  0  0  0  0  0  0  0  0  0
  -27.4790   65.5560   24.8420 N   0  0  0  0  0  0  0  0  0  0  0  0
  -26.3780   66.1900   24.3680 C   0  0  0  0  0  0  0  0  0  0  0  0
  -26.4820   66.9800   23.2990 C   0  0  0  0  0  0  0  0  0  0  0  0
  -25.1510   66.0030   25.0070 C   0  0  0  0  0  0  0  0  0  0  0  0
  -25.0690   65.1700   26.1250 C   0  0  0  0  0  0  0  0  0  0  0  0
  -23.8200   65.0200   26.7230 O   0  0  0  0  0  0  0  0  0  0  0  0
  -26.1680   63.6910   27.7080 C   0  0  1  0  0  0  0  0  0  0  0  0
  -25.5860   62.4230   27.6030 O   0  0  0  0  0  0  0  0  0  0  0  0
  -24.8270   62.2090   26.9730 H   0  0  0  0  0  0  0  0  0  0  0  0
  -26.6840   64.1230   28.9420 O   0  0  0  0  0  0  0  0  0  0  0  0
  -26.1600   63.7810   30.2230 C   0  0  0  0  0  0  0  0  0  0  0  0
  -24.8850   64.5640   30.5140 C   0  0  0  0  0  0  0  0  0  0  0  0
  1 10  1  0  0  0  0
  2  3  2  0  0  0  0
  2  1  1  0  0  0  0
  4  2  1  0  0  0  0
  5  4  1  0  0  0  0
  5  7  1  0  0  0  0
  6  5  2  0  0  0  0
  7  8  1  0  0  0  0
  8  1  2  0  0  0  0
  8  9  1  0  0  0  0
 10 11  1  1  0  0  0
 10 13  1  0  0  0  0
 12 11  1  0  0  0  0
 13 14  1  0  0  0  0
 14 15  1  0  0  0  0
M  END
>  <REMARK>
 VINA RESULT:      -5.5      1.639      1.963
  4 active torsions:
  status: ('A' for Active; 'I' for Inactive)
    1  A    between atoms: O1_2  and  C1_3 
    2  A    between atoms: C1_3  and  O2_4 
    3  A    between atoms: C1_3  and  C4_7 
    4  A    between atoms: O2_4  and  C2_5 

>  <TORSDO>
F 4

$$$$
../pdbqt/decoy.vina_out.66.pdbqt
 OpenBabel06052021513D

 15 15  0  0  1  0  0  0  0  0999 V2000
  -27.0130   64.9260   26.1480 C   0  0  0  0  0  0  0  0  0  0  0  0
  -25.7820   64.6580   26.8110 C   0  0  0  0  0  0  0  0  0  0  0  0
  -25.7230   63.8940   27.9710 O   0  0  0  0  0  0  0  0  0  0  0  0
  -24.6160   65.1510   26.3190 N   0  0  0  0  0  0  0  0  0  0  0  0
  -24.5530   65.9070   25.1960 C   0  0  0  0  0  0  0  0  0  0  0  0
  -23.3730   66.3580   24.7700 C   0  0  0  0  0  0  0  0  0  0  0  0
  -25.7290   66.2050   24.5040 C   0  0  0  0  0  0  0  0  0  0  0  0
  -26.9520   65.7210   24.9710 C   0  0  0  0  0  0  0  0  0  0  0  0
  -28.0920   66.0490   24.2410 O   0  0  0  0  0  0  0  0  0  0  0  0
  -28.1960   64.4450   26.6220 C   0  0  1  0  0  0  0  0  0  0  0  0
  -28.9350   63.5280   25.8660 O   0  0  0  0  0  0  0  0  0  0  0  0
  -29.8170   63.7510   25.4270 H   0  0  0  0  0  0  0  0  0  0  0  0
  -28.6740   64.8620   27.8770 O   0  0  0  0  0  0  0  0  0  0  0  0
  -29.0450   63.9980   28.9490 C   0  0  0  0  0  0  0  0  0  0  0  0
  -30.1050   64.6510   29.8290 C   0  0  0  0  0  0  0  0  0  0  0  0
  1 10  1  0  0  0  0
  1  2  1  0  0  0  0
  2  3  2  0  0  0  0
  4  2  1  0  0  0  0
  5  4  2  0  0  0  0
  6  5  1  0  0  0  0
  7  8  1  0  0  0  0
  7  5  1  0  0  0  0
  8  1  2  0  0  0  0
  9  8  1  0  0  0  0
 10 11  1  1  0  0  0
 10 13  1  0  0  0  0
 12 11  1  0  0  0  0
 13 14  1  0  0  0  0
 14 15  1  0  0  0  0
M  END
>  <REMARK>
 VINA RESULT:      -5.5      1.896      3.053
  4 active torsions:
  status: ('A' for Active; 'I' for Inactive)
    1  A    between atoms: O1_2  and  C1_3 
    2  A    between atoms: C1_3  and  O2_4 
    3  A    between atoms: C1_3  and  C4_7 
    4  A    between atoms: O2_4  and  C2_5 

>  <TORSDO>
F 4

$$$$
../pdbqt/decoy.vina_out.66.pdbqt
 OpenBabel06052021513D

 15 15  0  0  1  0  0  0  0  0999 V2000
  -20.5280   62.4240   24.4000 C   0  0  0  0  0  0  0  0  0  0  0  0
  -21.7800   62.7090   23.7840 C   0  0  0  0  0  0  0  0  0  0  0  0
  -21.9810   62.5440   22.4180 O   0  0  0  0  0  0  0  0  0  0  0  0
  -22.8250   63.1560   24.5280 N   0  0  0  0  0  0  0  0  0  0  0  0
  -22.7430   63.3540   25.8670 C   0  0  0  0  0  0  0  0  0  0  0  0
  -23.8090   63.7950   26.5340 C   0  0  0  0  0  0  0  0  0  0  0  0
  -21.5400   63.0930   26.5250 C   0  0  0  0  0  0  0  0  0  0  0  0
  -20.4370   62.6320   25.8040 C   0  0  0  0  0  0  0  0  0  0  0  0
  -19.2630   62.3900   26.5120 O   0  0  0  0  0  0  0  0  0  0  0  0
  -19.4640   61.9760   23.6760 C   0  0  1  0  0  0  0  0  0  0  0  0
  -19.4810   60.6900   23.1270 O   0  0  0  0  0  0  0  0  0  0  0  0
  -18.9270   59.9240   23.4840 H   0  0  0  0  0  0  0  0  0  0  0  0
  -18.3500   62.8090   23.4730 O   0  0  0  0  0  0  0  0  0  0  0  0
  -18.3990   64.1580   23.0130 C   0  0  0  0  0  0  0  0  0  0  0  0
  -18.9300   64.2250   21.5860 C   0  0  0  0  0  0  0  0  0  0  0  0
  1  8  2  0  0  0  0
  2  1  1  0  0  0  0
  2  4  1  0  0  0  0
  3  2  2  0  0  0  0
  4  5  2  0  0  0  0
  5  7  1  0  0  0  0
  5  6  1  0  0  0  0
  8  9  1  0  0  0  0
  8  7  1  0  0  0  0
 10 11  1  6  0  0  0
 10  1  1  0  0  0  0
 11 12  1  0  0  0  0
 13 10  1  0  0  0  0
 14 13  1  0  0  0  0
 15 14  1  0  0  0  0
M  END
>  <REMARK>
 VINA RESULT:      -5.3      6.247      7.912
  4 active torsions:
  status: ('A' for Active; 'I' for Inactive)
    1  A    between atoms: O1_2  and  C1_3 
    2  A    between atoms: C1_3  and  O2_4 
    3  A    between atoms: C1_3  and  C4_7 
    4  A    between atoms: O2_4  and  C2_5 

>  <TORSDO>
F 4

$$$$
