../pdbqt/decoy.vina_out.25.pdbqt
 OpenBabel06052021513D

 25 26  0  0  0  0  0  0  0  0999 V2000
  -23.2370   65.8770   25.5280 C   0  0  0  0  0  0  0  0  0  0  0  0
  -23.2600   65.2160   26.7680 C   0  0  0  0  0  0  0  0  0  0  0  0
  -24.4500   64.6690   27.2560 C   0  0  0  0  0  0  0  0  0  0  0  0
  -25.6390   64.7860   26.5200 C   0  0  0  0  0  0  0  0  0  0  0  0
  -25.6230   65.4730   25.2960 C   0  0  0  0  0  0  0  0  0  0  0  0
  -24.4330   66.0200   24.8100 C   0  0  0  0  0  0  0  0  0  0  0  0
  -22.0010   66.4910   24.9930 C   0  0  0  0  0  0  0  0  0  0  0  0
  -20.9920   65.8070   24.5450 N   0  0  0  0  0  0  0  0  0  0  0  0
  -20.9700   64.4050   24.5100 N   0  0  0  0  0  0  0  0  0  0  0  0
  -19.8870   63.6820   23.9230 C   0  0  0  0  0  0  0  0  0  0  0  0
  -19.7560   62.4590   24.1900 O   0  0  0  0  0  0  0  0  0  0  0  0
  -18.8950   64.3360   23.0520 C   0  0  0  0  0  0  0  0  0  0  0  0
  -17.5850   65.2250   23.6240 S   0  0  0  0  0  0  0  0  0  0  0  0
  -16.9990   65.5540   22.0840 C   0  0  0  0  0  0  0  0  0  0  0  0
  -15.8230   66.4220   21.7900 C   0  0  0  0  0  0  0  0  0  0  0  0
  -17.7770   65.0040   21.1270 N   0  0  0  0  0  0  0  0  0  0  0  0
  -18.8210   64.3050   21.6530 C   0  0  0  0  0  0  0  0  0  0  0  0
  -19.7670   63.5610   20.7630 C   0  0  0  0  0  0  0  0  0  0  0  0
  -26.8660   64.2240   27.0300 N   0  0  0  0  0  0  0  0  0  0  0  0
  -26.9370   63.7490   28.4190 C   0  0  0  0  0  0  0  0  0  0  0  0
  -27.0670   62.2280   28.4720 C   0  0  0  0  0  0  0  0  0  0  0  0
  -25.4760   61.4520   28.6840 Cl  0  0  0  0  0  0  0  0  0  0  0  0
  -28.0310   64.0650   26.1480 C   0  0  0  0  0  0  0  0  0  0  0  0
  -28.9170   65.3080   26.2020 C   0  0  0  0  0  0  0  0  0  0  0  0
  -29.0350   66.0480   24.5860 Cl  0  0  0  0  0  0  0  0  0  0  0  0
  1  2  2  0  0  0  0
  2  3  1  0  0  0  0
  4 19  1  0  0  0  0
  4  3  2  0  0  0  0
  5  4  1  0  0  0  0
  6  5  2  0  0  0  0
  6  1  1  0  0  0  0
  7  1  1  0  0  0  0
  8  7  2  0  0  0  0
  9  8  1  0  0  0  0
 10 11  2  0  0  0  0
 10  9  1  0  0  0  0
 12 13  1  0  0  0  0
 12 10  1  0  0  0  0
 14 13  1  0  0  0  0
 15 14  1  0  0  0  0
 16 17  1  0  0  0  0
 16 14  2  0  0  0  0
 17 12  2  0  0  0  0
 18 17  1  0  0  0  0
 19 20  1  0  0  0  0
 20 21  1  0  0  0  0
 21 22  1  0  0  0  0
 23 24  1  0  0  0  0
 23 19  1  0  0  0  0
 25 24  1  0  0  0  0
M  END
>  <MODEL>
1

>  <REMARK>
 VINA RESULT:      -7.2      0.000      0.000
  8 active torsions:
  status: ('A' for Active; 'I' for Inactive)
    1  A    between atoms: C1_1  and  C8_13 
    2  A    between atoms: N1_2  and  N2_3 
       I    between atoms: N2_3  and  C2_4 
    3  A    between atoms: C2_4  and  C3_6 
    4  A    between atoms: C11_16  and  N4_17 
    5  A    between atoms: N4_17  and  C12_18 
    6  A    between atoms: N4_17  and  C14_21 
    7  A    between atoms: C12_18  and  C13_19 
    8  A    between atoms: C14_21  and  C15_22 

>  <TORSDO>
F 8

$$$$
../pdbqt/decoy.vina_out.25.pdbqt
 OpenBabel06052021513D

 25 26  0  0  0  0  0  0  0  0999 V2000
  -23.4460   65.9850   25.4490 C   0  0  0  0  0  0  0  0  0  0  0  0
  -23.9580   65.2190   26.5100 C   0  0  0  0  0  0  0  0  0  0  0  0
  -25.3110   64.8670   26.5400 C   0  0  0  0  0  0  0  0  0  0  0  0
  -26.1760   65.2890   25.5190 C   0  0  0  0  0  0  0  0  0  0  0  0
  -25.6710   66.0810   24.4760 C   0  0  0  0  0  0  0  0  0  0  0  0
  -24.3190   66.4320   24.4470 C   0  0  0  0  0  0  0  0  0  0  0  0
  -22.0250   66.3970   25.4000 C   0  0  0  0  0  0  0  0  0  0  0  0
  -21.0830   65.6750   24.8720 N   0  0  0  0  0  0  0  0  0  0  0  0
  -21.3150   64.4250   24.2810 N   0  0  0  0  0  0  0  0  0  0  0  0
  -20.8750   63.2100   24.8890 C   0  0  0  0  0  0  0  0  0  0  0  0
  -21.3680   62.1200   24.4980 O   0  0  0  0  0  0  0  0  0  0  0  0
  -19.8950   63.2000   25.9890 C   0  0  0  0  0  0  0  0  0  0  0  0
  -18.2270   63.2410   25.7600 S   0  0  0  0  0  0  0  0  0  0  0  0
  -17.8940   63.2390   27.4070 C   0  0  0  0  0  0  0  0  0  0  0  0
  -16.5260   63.1830   27.9970 C   0  0  0  0  0  0  0  0  0  0  0  0
  -19.0250   63.2070   28.1440 N   0  0  0  0  0  0  0  0  0  0  0  0
  -20.1440   63.2080   27.3680 C   0  0  0  0  0  0  0  0  0  0  0  0
  -21.5050   63.2420   27.9910 C   0  0  0  0  0  0  0  0  0  0  0  0
  -27.5730   64.9280   25.5570 N   0  0  0  0  0  0  0  0  0  0  0  0
  -28.2740   64.8360   26.8450 C   0  0  0  0  0  0  0  0  0  0  0  0
  -28.1000   63.4500   27.4640 C   0  0  0  0  0  0  0  0  0  0  0  0
  -28.6820   63.4220   29.1490 Cl  0  0  0  0  0  0  0  0  0  0  0  0
  -28.2840   64.5910   24.3150 C   0  0  0  0  0  0  0  0  0  0  0  0
  -29.4610   65.5400   24.0980 C   0  0  0  0  0  0  0  0  0  0  0  0
  -28.9130   67.2320   24.2110 Cl  0  0  0  0  0  0  0  0  0  0  0  0
  1  2  2  0  0  0  0
  2  3  1  0  0  0  0
  4 19  1  0  0  0  0
  4  3  2  0  0  0  0
  5  4  1  0  0  0  0
  6  5  2  0  0  0  0
  6  1  1  0  0  0  0
  7  1  1  0  0  0  0
  8  7  2  0  0  0  0
  9  8  1  0  0  0  0
  9 10  1  0  0  0  0
 10 12  1  0  0  0  0
 11 10  2  0  0  0  0
 12 17  2  0  0  0  0
 13 12  1  0  0  0  0
 13 14  1  0  0  0  0
 14 15  1  0  0  0  0
 14 16  2  0  0  0  0
 17 18  1  0  0  0  0
 17 16  1  0  0  0  0
 19 20  1  0  0  0  0
 20 21  1  0  0  0  0
 21 22  1  0  0  0  0
 23 19  1  0  0  0  0
 24 25  1  0  0  0  0
 24 23  1  0  0  0  0
M  END
>  <REMARK>
 VINA RESULT:      -7.0      2.703      3.439
  8 active torsions:
  status: ('A' for Active; 'I' for Inactive)
    1  A    between atoms: C1_1  and  C8_13 
    2  A    between atoms: N1_2  and  N2_3 
       I    between atoms: N2_3  and  C2_4 
    3  A    between atoms: C2_4  and  C3_6 
    4  A    between atoms: C11_16  and  N4_17 
    5  A    between atoms: N4_17  and  C12_18 
    6  A    between atoms: N4_17  and  C14_21 
    7  A    between atoms: C12_18  and  C13_19 
    8  A    between atoms: C14_21  and  C15_22 

>  <TORSDO>
F 8

$$$$
../pdbqt/decoy.vina_out.25.pdbqt
 OpenBabel06052021513D

 25 26  0  0  0  0  0  0  0  0999 V2000
  -23.4170   65.6560   25.8510 C   0  0  0  0  0  0  0  0  0  0  0  0
  -24.5560   66.0050   25.1060 C   0  0  0  0  0  0  0  0  0  0  0  0
  -25.8160   65.5240   25.4740 C   0  0  0  0  0  0  0  0  0  0  0  0
  -25.9560   64.6750   26.5830 C   0  0  0  0  0  0  0  0  0  0  0  0
  -24.8130   64.3020   27.3080 C   0  0  0  0  0  0  0  0  0  0  0  0
  -23.5550   64.7820   26.9390 C   0  0  0  0  0  0  0  0  0  0  0  0
  -22.0650   66.1250   25.4740 C   0  0  0  0  0  0  0  0  0  0  0  0
  -21.2350   65.4300   24.7540 N   0  0  0  0  0  0  0  0  0  0  0  0
  -21.5380   64.1580   24.2480 N   0  0  0  0  0  0  0  0  0  0  0  0
  -20.5370   63.3190   23.6710 C   0  0  0  0  0  0  0  0  0  0  0  0
  -20.7820   62.0930   23.5230 O   0  0  0  0  0  0  0  0  0  0  0  0
  -19.2130   63.8380   23.2840 C   0  0  0  0  0  0  0  0  0  0  0  0
  -18.8710   64.5080   21.7780 S   0  0  0  0  0  0  0  0  0  0  0  0
  -17.2730   64.8460   22.1730 C   0  0  0  0  0  0  0  0  0  0  0  0
  -16.2670   65.4120   21.2310 C   0  0  0  0  0  0  0  0  0  0  0  0
  -16.9790   64.4600   23.4330 N   0  0  0  0  0  0  0  0  0  0  0  0
  -18.0550   63.9190   24.0690 C   0  0  0  0  0  0  0  0  0  0  0  0
  -17.9590   63.4870   25.5000 C   0  0  0  0  0  0  0  0  0  0  0  0
  -27.2580   64.1780   26.9560 N   0  0  0  0  0  0  0  0  0  0  0  0
  -28.4690   64.8870   26.5210 C   0  0  0  0  0  0  0  0  0  0  0  0
  -29.0210   64.2860   25.2290 C   0  0  0  0  0  0  0  0  0  0  0  0
  -29.2350   65.5370   23.9770 Cl  0  0  0  0  0  0  0  0  0  0  0  0
  -27.3790   62.9980   27.8240 C   0  0  0  0  0  0  0  0  0  0  0  0
  -27.8350   63.4060   29.2230 C   0  0  0  0  0  0  0  0  0  0  0  0
  -26.6570   62.8520   30.4390 Cl  0  0  0  0  0  0  0  0  0  0  0  0
  1  6  2  0  0  0  0
  2  3  2  0  0  0  0
  2  1  1  0  0  0  0
  3  4  1  0  0  0  0
  4 19  1  0  0  0  0
  4  5  2  0  0  0  0
  6  5  1  0  0  0  0
  7  1  1  0  0  0  0
  8  7  2  0  0  0  0
  9  8  1  0  0  0  0
 10  9  1  0  0  0  0
 11 10  2  0  0  0  0
 12 10  1  0  0  0  0
 12 17  2  0  0  0  0
 13 14  1  0  0  0  0
 13 12  1  0  0  0  0
 14 16  2  0  0  0  0
 15 14  1  0  0  0  0
 16 17  1  0  0  0  0
 17 18  1  0  0  0  0
 19 23  1  0  0  0  0
 20 19  1  0  0  0  0
 21 20  1  0  0  0  0
 22 21  1  0  0  0  0
 23 24  1  0  0  0  0
 24 25  1  0  0  0  0
M  END
>  <REMARK>
 VINA RESULT:      -7.0      1.255      2.976
  8 active torsions:
  status: ('A' for Active; 'I' for Inactive)
    1  A    between atoms: C1_1  and  C8_13 
    2  A    between atoms: N1_2  and  N2_3 
       I    between atoms: N2_3  and  C2_4 
    3  A    between atoms: C2_4  and  C3_6 
    4  A    between atoms: C11_16  and  N4_17 
    5  A    between atoms: N4_17  and  C12_18 
    6  A    between atoms: N4_17  and  C14_21 
    7  A    between atoms: C12_18  and  C13_19 
    8  A    between atoms: C14_21  and  C15_22 

>  <TORSDO>
F 8

$$$$
../pdbqt/decoy.vina_out.25.pdbqt
 OpenBabel06052021513D

 25 26  0  0  0  0  0  0  0  0999 V2000
  -20.3540   63.0930   23.5250 C   0  0  0  0  0  0  0  0  0  0  0  0
  -19.9130   63.6980   22.3350 C   0  0  0  0  0  0  0  0  0  0  0  0
  -18.5490   63.9040   22.1110 C   0  0  0  0  0  0  0  0  0  0  0  0
  -17.6050   63.5240   23.0770 C   0  0  0  0  0  0  0  0  0  0  0  0
  -18.0480   62.9490   24.2790 C   0  0  0  0  0  0  0  0  0  0  0  0
  -19.4120   62.7440   24.5030 C   0  0  0  0  0  0  0  0  0  0  0  0
  -21.7920   62.8840   23.8070 C   0  0  0  0  0  0  0  0  0  0  0  0
  -22.5580   63.7810   24.3510 N   0  0  0  0  0  0  0  0  0  0  0  0
  -22.1040   65.0540   24.7240 N   0  0  0  0  0  0  0  0  0  0  0  0
  -22.9950   66.0640   25.2000 C   0  0  0  0  0  0  0  0  0  0  0  0
  -22.5190   67.0580   25.8090 O   0  0  0  0  0  0  0  0  0  0  0  0
  -24.4550   65.9540   25.0370 C   0  0  0  0  0  0  0  0  0  0  0  0
  -25.3040   66.5910   23.7290 S   0  0  0  0  0  0  0  0  0  0  0  0
  -26.7870   66.0230   24.2790 C   0  0  0  0  0  0  0  0  0  0  0  0
  -28.0970   66.2970   23.6240 C   0  0  0  0  0  0  0  0  0  0  0  0
  -26.6620   65.3530   25.4450 N   0  0  0  0  0  0  0  0  0  0  0  0
  -25.3680   65.2870   25.8640 C   0  0  0  0  0  0  0  0  0  0  0  0
  -25.0050   64.5300   27.1040 C   0  0  0  0  0  0  0  0  0  0  0  0
  -16.1980   63.7430   22.8430 N   0  0  0  0  0  0  0  0  0  0  0  0
  -15.4960   62.9730   21.8070 C   0  0  0  0  0  0  0  0  0  0  0  0
  -14.7380   63.8990   20.8570 C   0  0  0  0  0  0  0  0  0  0  0  0
  -15.8280   64.5890   19.6260 Cl  0  0  0  0  0  0  0  0  0  0  0  0
  -15.4470   64.6900   23.6800 C   0  0  0  0  0  0  0  0  0  0  0  0
  -16.2170   66.0010   23.8280 C   0  0  0  0  0  0  0  0  0  0  0  0
  -16.4150   66.7790   22.2380 Cl  0  0  0  0  0  0  0  0  0  0  0  0
  1  7  1  0  0  0  0
  1  6  2  0  0  0  0
  2  1  1  0  0  0  0
  3  2  2  0  0  0  0
  3  4  1  0  0  0  0
  4  5  2  0  0  0  0
  5  6  1  0  0  0  0
  7  8  2  0  0  0  0
  8  9  1  0  0  0  0
  9 10  1  0  0  0  0
 10 11  2  0  0  0  0
 12 10  1  0  0  0  0
 12 17  2  0  0  0  0
 13 14  1  0  0  0  0
 13 12  1  0  0  0  0
 14 16  2  0  0  0  0
 15 14  1  0  0  0  0
 16 17  1  0  0  0  0
 17 18  1  0  0  0  0
 19  4  1  0  0  0  0
 19 23  1  0  0  0  0
 20 19  1  0  0  0  0
 21 20  1  0  0  0  0
 22 21  1  0  0  0  0
 23 24  1  0  0  0  0
 25 24  1  0  0  0  0
M  END
>  <REMARK>
 VINA RESULT:      -6.9      4.470      9.271
  8 active torsions:
  status: ('A' for Active; 'I' for Inactive)
    1  A    between atoms: C1_1  and  C8_13 
    2  A    between atoms: N1_2  and  N2_3 
       I    between atoms: N2_3  and  C2_4 
    3  A    between atoms: C2_4  and  C3_6 
    4  A    between atoms: C11_16  and  N4_17 
    5  A    between atoms: N4_17  and  C12_18 
    6  A    between atoms: N4_17  and  C14_21 
    7  A    between atoms: C12_18  and  C13_19 
    8  A    between atoms: C14_21  and  C15_22 

>  <TORSDO>
F 8

$$$$
../pdbqt/decoy.vina_out.25.pdbqt
 OpenBabel06052021513D

 25 26  0  0  0  0  0  0  0  0999 V2000
  -20.1690   63.0280   25.7380 C   0  0  0  0  0  0  0  0  0  0  0  0
  -21.2690   62.8920   24.8720 C   0  0  0  0  0  0  0  0  0  0  0  0
  -22.5730   63.0130   25.3620 C   0  0  0  0  0  0  0  0  0  0  0  0
  -22.8000   63.2550   26.7250 C   0  0  0  0  0  0  0  0  0  0  0  0
  -21.7020   63.3590   27.5950 C   0  0  0  0  0  0  0  0  0  0  0  0
  -20.4000   63.2380   27.1050 C   0  0  0  0  0  0  0  0  0  0  0  0
  -18.7770   62.8800   25.2590 C   0  0  0  0  0  0  0  0  0  0  0  0
  -18.0760   63.8570   24.7690 N   0  0  0  0  0  0  0  0  0  0  0  0
  -18.5630   65.1670   24.6490 N   0  0  0  0  0  0  0  0  0  0  0  0
  -18.6190   65.8380   23.3900 C   0  0  0  0  0  0  0  0  0  0  0  0
  -19.3390   66.8650   23.2780 O   0  0  0  0  0  0  0  0  0  0  0  0
  -17.8940   65.3390   22.2080 C   0  0  0  0  0  0  0  0  0  0  0  0
  -16.3170   65.7830   21.8180 S   0  0  0  0  0  0  0  0  0  0  0  0
  -16.2650   64.8030   20.4540 C   0  0  0  0  0  0  0  0  0  0  0  0
  -15.1240   64.7390   19.4970 C   0  0  0  0  0  0  0  0  0  0  0  0
  -17.4250   64.1350   20.2760 N   0  0  0  0  0  0  0  0  0  0  0  0
  -18.3300   64.4070   21.2570 C   0  0  0  0  0  0  0  0  0  0  0  0
  -19.6590   63.7170   21.2820 C   0  0  0  0  0  0  0  0  0  0  0  0
  -24.1470   63.3740   27.2260 N   0  0  0  0  0  0  0  0  0  0  0  0
  -24.8110   64.6850   27.2480 C   0  0  0  0  0  0  0  0  0  0  0  0
  -26.0300   64.6960   26.3270 C   0  0  0  0  0  0  0  0  0  0  0  0
  -25.8350   65.8890   25.0160 Cl  0  0  0  0  0  0  0  0  0  0  0  0
  -24.8400   62.1990   27.7740 C   0  0  0  0  0  0  0  0  0  0  0  0
  -25.4010   62.5070   29.1610 C   0  0  0  0  0  0  0  0  0  0  0  0
  -27.1470   62.1570   29.2080 Cl  0  0  0  0  0  0  0  0  0  0  0  0
  1  6  2  0  0  0  0
  2  3  2  0  0  0  0
  2  1  1  0  0  0  0
  3  4  1  0  0  0  0
  4 19  1  0  0  0  0
  4  5  2  0  0  0  0
  6  5  1  0  0  0  0
  7  1  1  0  0  0  0
  8  7  2  0  0  0  0
  9  8  1  0  0  0  0
 10  9  1  0  0  0  0
 11 10  2  0  0  0  0
 12 10  1  0  0  0  0
 13 12  1  0  0  0  0
 14 13  1  0  0  0  0
 15 14  1  0  0  0  0
 16 14  2  0  0  0  0
 16 17  1  0  0  0  0
 17 18  1  0  0  0  0
 17 12  2  0  0  0  0
 19 20  1  0  0  0  0
 19 23  1  0  0  0  0
 21 20  1  0  0  0  0
 22 21  1  0  0  0  0
 23 24  1  0  0  0  0
 24 25  1  0  0  0  0
M  END
>  <REMARK>
 VINA RESULT:      -6.8      2.274      3.700
  8 active torsions:
  status: ('A' for Active; 'I' for Inactive)
    1  A    between atoms: C1_1  and  C8_13 
    2  A    between atoms: N1_2  and  N2_3 
       I    between atoms: N2_3  and  C2_4 
    3  A    between atoms: C2_4  and  C3_6 
    4  A    between atoms: C11_16  and  N4_17 
    5  A    between atoms: N4_17  and  C12_18 
    6  A    between atoms: N4_17  and  C14_21 
    7  A    between atoms: C12_18  and  C13_19 
    8  A    between atoms: C14_21  and  C15_22 

>  <TORSDO>
F 8

$$$$
../pdbqt/decoy.vina_out.25.pdbqt
 OpenBabel06052021513D

 25 26  0  0  0  0  0  0  0  0999 V2000
  -20.4020   62.9420   23.3390 C   0  0  0  0  0  0  0  0  0  0  0  0
  -20.0000   63.6260   22.1780 C   0  0  0  0  0  0  0  0  0  0  0  0
  -18.6470   63.8930   21.9480 C   0  0  0  0  0  0  0  0  0  0  0  0
  -17.6760   63.4950   22.8800 C   0  0  0  0  0  0  0  0  0  0  0  0
  -18.0810   62.8400   24.0530 C   0  0  0  0  0  0  0  0  0  0  0  0
  -19.4330   62.5740   24.2830 C   0  0  0  0  0  0  0  0  0  0  0  0
  -21.8270   62.6660   23.6270 C   0  0  0  0  0  0  0  0  0  0  0  0
  -22.6050   63.4860   24.2680 N   0  0  0  0  0  0  0  0  0  0  0  0
  -22.1770   64.7310   24.7500 N   0  0  0  0  0  0  0  0  0  0  0  0
  -23.0290   65.5730   25.5260 C   0  0  0  0  0  0  0  0  0  0  0  0
  -22.5180   66.5120   26.1910 O   0  0  0  0  0  0  0  0  0  0  0  0
  -24.4830   65.3480   25.6060 C   0  0  0  0  0  0  0  0  0  0  0  0
  -25.2220   64.3990   26.7850 S   0  0  0  0  0  0  0  0  0  0  0  0
  -26.7710   64.6930   26.2020 C   0  0  0  0  0  0  0  0  0  0  0  0
  -28.0140   64.0700   26.7410 C   0  0  0  0  0  0  0  0  0  0  0  0
  -26.7510   65.5020   25.1210 N   0  0  0  0  0  0  0  0  0  0  0  0
  -25.4870   65.8910   24.7940 C   0  0  0  0  0  0  0  0  0  0  0  0
  -25.2510   66.8450   23.6640 C   0  0  0  0  0  0  0  0  0  0  0  0
  -16.2820   63.7780   22.6400 N   0  0  0  0  0  0  0  0  0  0  0  0
  -15.5380   64.6470   23.5630 C   0  0  0  0  0  0  0  0  0  0  0  0
  -16.2290   66.0010   23.7150 C   0  0  0  0  0  0  0  0  0  0  0  0
  -16.5630   66.7350   22.1250 Cl  0  0  0  0  0  0  0  0  0  0  0  0
  -15.6150   63.2500   21.4410 C   0  0  0  0  0  0  0  0  0  0  0  0
  -14.4630   64.1620   21.0240 C   0  0  0  0  0  0  0  0  0  0  0  0
  -14.7110   64.7420   19.3580 Cl  0  0  0  0  0  0  0  0  0  0  0  0
  1  7  1  0  0  0  0
  1  6  2  0  0  0  0
  2  1  1  0  0  0  0
  3  2  2  0  0  0  0
  3  4  1  0  0  0  0
  4  5  2  0  0  0  0
  5  6  1  0  0  0  0
  7  8  2  0  0  0  0
  8  9  1  0  0  0  0
  9 10  1  0  0  0  0
 10 12  1  0  0  0  0
 10 11  2  0  0  0  0
 12 13  1  0  0  0  0
 14 15  1  0  0  0  0
 14 13  1  0  0  0  0
 16 14  2  0  0  0  0
 17 16  1  0  0  0  0
 17 12  2  0  0  0  0
 18 17  1  0  0  0  0
 19  4  1  0  0  0  0
 19 20  1  0  0  0  0
 20 21  1  0  0  0  0
 22 21  1  0  0  0  0
 23 19  1  0  0  0  0
 24 23  1  0  0  0  0
 25 24  1  0  0  0  0
M  END
>  <REMARK>
 VINA RESULT:      -6.8      4.576      9.403
  8 active torsions:
  status: ('A' for Active; 'I' for Inactive)
    1  A    between atoms: C1_1  and  C8_13 
    2  A    between atoms: N1_2  and  N2_3 
       I    between atoms: N2_3  and  C2_4 
    3  A    between atoms: C2_4  and  C3_6 
    4  A    between atoms: C11_16  and  N4_17 
    5  A    between atoms: N4_17  and  C12_18 
    6  A    between atoms: N4_17  and  C14_21 
    7  A    between atoms: C12_18  and  C13_19 
    8  A    between atoms: C14_21  and  C15_22 

>  <TORSDO>
F 8

$$$$
../pdbqt/decoy.vina_out.25.pdbqt
 OpenBabel06052021513D

 25 26  0  0  0  0  0  0  0  0999 V2000
  -20.4890   62.8820   24.9310 C   0  0  0  0  0  0  0  0  0  0  0  0
  -21.4850   63.2650   24.0150 C   0  0  0  0  0  0  0  0  0  0  0  0
  -22.7360   63.6920   24.4690 C   0  0  0  0  0  0  0  0  0  0  0  0
  -23.0190   63.7270   25.8430 C   0  0  0  0  0  0  0  0  0  0  0  0
  -22.0350   63.3140   26.7560 C   0  0  0  0  0  0  0  0  0  0  0  0
  -20.7850   62.8880   26.3010 C   0  0  0  0  0  0  0  0  0  0  0  0
  -19.1630   62.4010   24.4850 C   0  0  0  0  0  0  0  0  0  0  0  0
  -18.1360   63.1770   24.3090 N   0  0  0  0  0  0  0  0  0  0  0  0
  -18.1730   64.5610   24.5330 N   0  0  0  0  0  0  0  0  0  0  0  0
  -17.9090   65.5010   23.4910 C   0  0  0  0  0  0  0  0  0  0  0  0
  -18.2550   66.7000   23.6500 O   0  0  0  0  0  0  0  0  0  0  0  0
  -17.2820   65.0980   22.2190 C   0  0  0  0  0  0  0  0  0  0  0  0
  -15.6460   65.2960   21.8750 S   0  0  0  0  0  0  0  0  0  0  0  0
  -15.7710   64.5920   20.3540 C   0  0  0  0  0  0  0  0  0  0  0  0
  -14.6550   64.4880   19.3720 C   0  0  0  0  0  0  0  0  0  0  0  0
  -17.0370   64.2040   20.0880 N   0  0  0  0  0  0  0  0  0  0  0  0
  -17.8810   64.4580   21.1260 C   0  0  0  0  0  0  0  0  0  0  0  0
  -19.3190   64.0430   21.0600 C   0  0  0  0  0  0  0  0  0  0  0  0
  -24.3140   64.1630   26.3070 N   0  0  0  0  0  0  0  0  0  0  0  0
  -25.2080   63.2160   26.9890 C   0  0  0  0  0  0  0  0  0  0  0  0
  -25.9870   63.9090   28.1060 C   0  0  0  0  0  0  0  0  0  0  0  0
  -27.7450   63.7570   27.8520 Cl  0  0  0  0  0  0  0  0  0  0  0  0
  -24.7710   65.5350   26.0450 C   0  0  0  0  0  0  0  0  0  0  0  0
  -25.8210   65.5470   24.9350 C   0  0  0  0  0  0  0  0  0  0  0  0
  -25.2630   66.5520   23.5740 Cl  0  0  0  0  0  0  0  0  0  0  0  0
  1  6  2  0  0  0  0
  2  3  2  0  0  0  0
  2  1  1  0  0  0  0
  3  4  1  0  0  0  0
  4 19  1  0  0  0  0
  4  5  2  0  0  0  0
  6  5  1  0  0  0  0
  7  1  1  0  0  0  0
  8  7  2  0  0  0  0
  8  9  1  0  0  0  0
 10 11  2  0  0  0  0
 10  9  1  0  0  0  0
 12 10  1  0  0  0  0
 13 12  1  0  0  0  0
 14 13  1  0  0  0  0
 15 14  1  0  0  0  0
 16 14  2  0  0  0  0
 16 17  1  0  0  0  0
 17 12  2  0  0  0  0
 18 17  1  0  0  0  0
 19 20  1  0  0  0  0
 20 21  1  0  0  0  0
 22 21  1  0  0  0  0
 23 19  1  0  0  0  0
 24 23  1  0  0  0  0
 25 24  1  0  0  0  0
M  END
>  <REMARK>
 VINA RESULT:      -6.8      2.329      3.291
  8 active torsions:
  status: ('A' for Active; 'I' for Inactive)
    1  A    between atoms: C1_1  and  C8_13 
    2  A    between atoms: N1_2  and  N2_3 
       I    between atoms: N2_3  and  C2_4 
    3  A    between atoms: C2_4  and  C3_6 
    4  A    between atoms: C11_16  and  N4_17 
    5  A    between atoms: N4_17  and  C12_18 
    6  A    between atoms: N4_17  and  C14_21 
    7  A    between atoms: C12_18  and  C13_19 
    8  A    between atoms: C14_21  and  C15_22 

>  <TORSDO>
F 8

$$$$
../pdbqt/decoy.vina_out.25.pdbqt
 OpenBabel06052021513D

 25 26  0  0  0  0  0  0  0  0999 V2000
  -23.1580   63.2600   26.5800 C   0  0  0  0  0  0  0  0  0  0  0  0
  -23.8700   64.2410   25.8680 C   0  0  0  0  0  0  0  0  0  0  0  0
  -25.2300   64.4470   26.1140 C   0  0  0  0  0  0  0  0  0  0  0  0
  -25.9060   63.6650   27.0640 C   0  0  0  0  0  0  0  0  0  0  0  0
  -25.2020   62.6640   27.7530 C   0  0  0  0  0  0  0  0  0  0  0  0
  -23.8430   62.4600   27.5060 C   0  0  0  0  0  0  0  0  0  0  0  0
  -21.7240   62.9980   26.3270 C   0  0  0  0  0  0  0  0  0  0  0  0
  -20.7670   63.7800   26.7270 N   0  0  0  0  0  0  0  0  0  0  0  0
  -20.9910   64.9570   27.4540 N   0  0  0  0  0  0  0  0  0  0  0  0
  -20.6570   66.2430   26.9300 C   0  0  0  0  0  0  0  0  0  0  0  0
  -21.1540   67.2680   27.4660 O   0  0  0  0  0  0  0  0  0  0  0  0
  -19.7830   66.4010   25.7540 C   0  0  0  0  0  0  0  0  0  0  0  0
  -20.2160   65.9350   24.1940 S   0  0  0  0  0  0  0  0  0  0  0  0
  -18.7710   66.4660   23.5200 C   0  0  0  0  0  0  0  0  0  0  0  0
  -18.3880   66.2960   22.0900 C   0  0  0  0  0  0  0  0  0  0  0  0
  -17.9510   66.9960   24.4540 N   0  0  0  0  0  0  0  0  0  0  0  0
  -18.5120   66.9870   25.6950 C   0  0  0  0  0  0  0  0  0  0  0  0
  -17.7930   67.5890   26.8620 C   0  0  0  0  0  0  0  0  0  0  0  0
  -27.3110   63.8770   27.3110 N   0  0  0  0  0  0  0  0  0  0  0  0
  -28.0180   63.0490   28.2990 C   0  0  0  0  0  0  0  0  0  0  0  0
  -28.2420   63.8210   29.5990 C   0  0  0  0  0  0  0  0  0  0  0  0
  -29.8820   64.5180   29.6580 Cl  0  0  0  0  0  0  0  0  0  0  0  0
  -28.0570   64.8780   26.5340 C   0  0  0  0  0  0  0  0  0  0  0  0
  -28.8590   64.2040   25.4230 C   0  0  0  0  0  0  0  0  0  0  0  0
  -28.6200   65.0680   23.8840 Cl  0  0  0  0  0  0  0  0  0  0  0  0
  1  6  2  0  0  0  0
  2  3  2  0  0  0  0
  2  1  1  0  0  0  0
  3  4  1  0  0  0  0
  4 19  1  0  0  0  0
  4  5  2  0  0  0  0
  6  5  1  0  0  0  0
  7  1  1  0  0  0  0
  7  8  2  0  0  0  0
  8  9  1  0  0  0  0
 10  9  1  0  0  0  0
 10 11  2  0  0  0  0
 12 10  1  0  0  0  0
 13 12  1  0  0  0  0
 14 13  1  0  0  0  0
 14 16  2  0  0  0  0
 15 14  1  0  0  0  0
 16 17  1  0  0  0  0
 17 12  2  0  0  0  0
 17 18  1  0  0  0  0
 19 20  1  0  0  0  0
 20 21  1  0  0  0  0
 21 22  1  0  0  0  0
 23 19  1  0  0  0  0
 24 23  1  0  0  0  0
 25 24  1  0  0  0  0
M  END
>  <REMARK>
 VINA RESULT:      -6.7      2.719      3.476
  8 active torsions:
  status: ('A' for Active; 'I' for Inactive)
    1  A    between atoms: C1_1  and  C8_13 
    2  A    between atoms: N1_2  and  N2_3 
       I    between atoms: N2_3  and  C2_4 
    3  A    between atoms: C2_4  and  C3_6 
    4  A    between atoms: C11_16  and  N4_17 
    5  A    between atoms: N4_17  and  C12_18 
    6  A    between atoms: N4_17  and  C14_21 
    7  A    between atoms: C12_18  and  C13_19 
    8  A    between atoms: C14_21  and  C15_22 

>  <TORSDO>
F 8

$$$$
../pdbqt/decoy.vina_out.25.pdbqt
 OpenBabel06052021513D

 25 26  0  0  0  0  0  0  0  0999 V2000
  -23.2500   65.4660   25.7060 C   0  0  0  0  0  0  0  0  0  0  0  0
  -24.4570   65.7120   25.0300 C   0  0  0  0  0  0  0  0  0  0  0  0
  -25.6780   65.3630   25.6140 C   0  0  0  0  0  0  0  0  0  0  0  0
  -25.7130   64.7480   26.8750 C   0  0  0  0  0  0  0  0  0  0  0  0
  -24.5050   64.4740   27.5360 C   0  0  0  0  0  0  0  0  0  0  0  0
  -23.2850   64.8230   26.9520 C   0  0  0  0  0  0  0  0  0  0  0  0
  -21.9380   65.7980   25.1060 C   0  0  0  0  0  0  0  0  0  0  0  0
  -21.1590   64.9220   24.5470 N   0  0  0  0  0  0  0  0  0  0  0  0
  -21.4830   63.5620   24.4430 N   0  0  0  0  0  0  0  0  0  0  0  0
  -20.5520   62.5360   24.7900 C   0  0  0  0  0  0  0  0  0  0  0  0
  -20.9780   61.3670   24.9820 O   0  0  0  0  0  0  0  0  0  0  0  0
  -19.1170   62.8160   24.9730 C   0  0  0  0  0  0  0  0  0  0  0  0
  -17.9740   62.6980   23.7420 S   0  0  0  0  0  0  0  0  0  0  0  0
  -16.7050   63.1870   24.7290 C   0  0  0  0  0  0  0  0  0  0  0  0
  -15.2760   63.2460   24.3090 C   0  0  0  0  0  0  0  0  0  0  0  0
  -17.1230   63.4420   25.9880 N   0  0  0  0  0  0  0  0  0  0  0  0
  -18.4650   63.2620   26.1300 C   0  0  0  0  0  0  0  0  0  0  0  0
  -19.1410   63.5560   27.4330 C   0  0  0  0  0  0  0  0  0  0  0  0
  -26.9750   64.3850   27.4720 N   0  0  0  0  0  0  0  0  0  0  0  0
  -27.0050   63.5390   28.6730 C   0  0  0  0  0  0  0  0  0  0  0  0
  -26.9940   62.0580   28.2990 C   0  0  0  0  0  0  0  0  0  0  0  0
  -25.4140   61.3150   28.6620 Cl  0  0  0  0  0  0  0  0  0  0  0  0
  -28.2370   64.8060   26.8480 C   0  0  0  0  0  0  0  0  0  0  0  0
  -28.6110   63.8640   25.7050 C   0  0  0  0  0  0  0  0  0  0  0  0
  -28.9930   64.7990   24.2380 Cl  0  0  0  0  0  0  0  0  0  0  0  0
  1  6  2  0  0  0  0
  2  3  2  0  0  0  0
  2  1  1  0  0  0  0
  3  4  1  0  0  0  0
  4 19  1  0  0  0  0
  4  5  2  0  0  0  0
  6  5  1  0  0  0  0
  7  1  1  0  0  0  0
  8  7  2  0  0  0  0
  9  8  1  0  0  0  0
  9 10  1  0  0  0  0
 10 12  1  0  0  0  0
 10 11  2  0  0  0  0
 12 17  2  0  0  0  0
 13 14  1  0  0  0  0
 13 12  1  0  0  0  0
 14 16  2  0  0  0  0
 15 14  1  0  0  0  0
 16 17  1  0  0  0  0
 17 18  1  0  0  0  0
 19 20  1  0  0  0  0
 21 22  1  0  0  0  0
 21 20  1  0  0  0  0
 23 19  1  0  0  0  0
 24 23  1  0  0  0  0
 25 24  1  0  0  0  0
M  END
>  <REMARK>
 VINA RESULT:      -6.6      2.083      2.629
  8 active torsions:
  status: ('A' for Active; 'I' for Inactive)
    1  A    between atoms: C1_1  and  C8_13 
    2  A    between atoms: N1_2  and  N2_3 
       I    between atoms: N2_3  and  C2_4 
    3  A    between atoms: C2_4  and  C3_6 
    4  A    between atoms: C11_16  and  N4_17 
    5  A    between atoms: N4_17  and  C12_18 
    6  A    between atoms: N4_17  and  C14_21 
    7  A    between atoms: C12_18  and  C13_19 
    8  A    between atoms: C14_21  and  C15_22 

>  <TORSDO>
F 8

$$$$
