../pdbqt/decoy.vina_out.42.pdbqt
 OpenBabel06052021513D

 13 13  0  0  0  0  0  0  0  0999 V2000
  -27.8630   64.4630   25.8320 C   0  0  0  0  0  0  0  0  0  0  0  0
  -28.2500   65.1960   24.7820 C   0  0  0  0  0  0  0  0  0  0  0  0
  -29.6670   65.1160   24.2850 C   0  0  0  0  0  0  0  0  0  0  0  0
  -27.2570   66.0270   24.0650 C   0  0  0  0  0  0  0  0  0  0  0  0
  -27.6190   66.6910   23.0550 O   0  0  0  0  0  0  0  0  0  0  0  0
  -25.8450   66.0820   24.5280 C   0  0  0  0  0  0  0  0  0  0  0  0
  -24.8610   66.9540   23.7800 C   0  0  0  0  0  0  0  0  0  0  0  0
  -25.4740   65.3910   25.6370 C   0  0  0  0  0  0  0  0  0  0  0  0
  -24.0530   65.4500   26.1550 C   0  0  0  0  0  0  0  0  0  0  0  0
  -26.4640   64.5070   26.3180 C   0  0  0  0  0  0  0  0  0  0  0  0
  -26.0920   63.7740   27.3240 N   0  0  0  0  0  0  0  0  0  0  0  0
  -26.9570   62.9330   27.9900 O   0  0  0  0  0  0  0  0  0  0  0  0
  -26.4570   61.8380   28.7380 C   0  0  0  0  0  0  0  0  0  0  0  0
  1 10  1  0  0  0  0
  2  1  2  0  0  0  0
  3  2  1  0  0  0  0
  4  6  1  0  0  0  0
  4  2  1  0  0  0  0
  5  4  2  0  0  0  0
  6  8  2  0  0  0  0
  7  6  1  0  0  0  0
  8  9  1  0  0  0  0
  8 10  1  0  0  0  0
 10 11  2  0  0  0  0
 11 12  1  0  0  0  0
 12 13  1  0  0  0  0
M  END
>  <MODEL>
1

>  <REMARK>
 VINA RESULT:      -6.9      0.000      0.000
  1 active torsions:
  status: ('A' for Active; 'I' for Inactive)
    1  A    between atoms: N1_11  and  O2_12 

>  <TORSDO>
F 1

$$$$
../pdbqt/decoy.vina_out.42.pdbqt
 OpenBabel06052021513D

 13 13  0  0  0  0  0  0  0  0999 V2000
  -25.1810   65.0020   26.2170 C   0  0  0  0  0  0  0  0  0  0  0  0
  -26.3510   64.4450   26.5480 C   0  0  0  0  0  0  0  0  0  0  0  0
  -26.4250   63.4550   27.6780 C   0  0  0  0  0  0  0  0  0  0  0  0
  -27.5570   64.7470   25.7450 C   0  0  0  0  0  0  0  0  0  0  0  0
  -28.6510   64.1940   26.0400 O   0  0  0  0  0  0  0  0  0  0  0  0
  -27.4830   65.6970   24.6020 C   0  0  0  0  0  0  0  0  0  0  0  0
  -28.7400   65.9950   23.8140 C   0  0  0  0  0  0  0  0  0  0  0  0
  -26.3070   66.3140   24.3160 C   0  0  0  0  0  0  0  0  0  0  0  0
  -26.2050   67.3100   23.1810 C   0  0  0  0  0  0  0  0  0  0  0  0
  -25.0830   65.9570   25.0890 C   0  0  0  0  0  0  0  0  0  0  0  0
  -23.9370   66.4760   24.7610 N   0  0  0  0  0  0  0  0  0  0  0  0
  -22.7690   66.1820   25.4310 O   0  0  0  0  0  0  0  0  0  0  0  0
  -21.7950   67.1870   25.6470 C   0  0  0  0  0  0  0  0  0  0  0  0
  1  2  2  0  0  0  0
  2  3  1  0  0  0  0
  4  5  2  0  0  0  0
  4  2  1  0  0  0  0
  6  4  1  0  0  0  0
  7  6  1  0  0  0  0
  8  6  2  0  0  0  0
  8 10  1  0  0  0  0
  9  8  1  0  0  0  0
 10  1  1  0  0  0  0
 11 10  2  0  0  0  0
 11 12  1  0  0  0  0
 12 13  1  0  0  0  0
M  END
>  <REMARK>
 VINA RESULT:      -6.9      2.386      4.096
  1 active torsions:
  status: ('A' for Active; 'I' for Inactive)
    1  A    between atoms: N1_11  and  O2_12 

>  <TORSDO>
F 1

$$$$
../pdbqt/decoy.vina_out.42.pdbqt
 OpenBabel06052021513D

 13 13  0  0  0  0  0  0  0  0999 V2000
  -24.9360   65.1160   26.0970 C   0  0  0  0  0  0  0  0  0  0  0  0
  -24.7580   65.9810   25.0920 C   0  0  0  0  0  0  0  0  0  0  0  0
  -23.3910   66.5400   24.8080 C   0  0  0  0  0  0  0  0  0  0  0  0
  -25.9270   66.4450   24.3120 C   0  0  0  0  0  0  0  0  0  0  0  0
  -25.7610   67.2860   23.3870 O   0  0  0  0  0  0  0  0  0  0  0  0
  -27.2880   65.9230   24.6120 C   0  0  0  0  0  0  0  0  0  0  0  0
  -28.4580   66.4080   23.7830 C   0  0  0  0  0  0  0  0  0  0  0  0
  -27.4510   64.9920   25.5870 C   0  0  0  0  0  0  0  0  0  0  0  0
  -28.8170   64.4170   25.8960 C   0  0  0  0  0  0  0  0  0  0  0  0
  -26.2800   64.5770   26.4100 C   0  0  0  0  0  0  0  0  0  0  0  0
  -26.4450   63.7540   27.4030 N   0  0  0  0  0  0  0  0  0  0  0  0
  -25.4050   63.3370   28.2040 O   0  0  0  0  0  0  0  0  0  0  0  0
  -25.0250   61.9730   28.2320 C   0  0  0  0  0  0  0  0  0  0  0  0
  1 10  1  0  0  0  0
  2  1  2  0  0  0  0
  3  2  1  0  0  0  0
  4  6  1  0  0  0  0
  4  2  1  0  0  0  0
  5  4  2  0  0  0  0
  6  8  2  0  0  0  0
  7  6  1  0  0  0  0
  8  9  1  0  0  0  0
  8 10  1  0  0  0  0
 10 11  2  0  0  0  0
 11 12  1  0  0  0  0
 12 13  1  0  0  0  0
M  END
>  <REMARK>
 VINA RESULT:      -6.9      1.174      3.012
  1 active torsions:
  status: ('A' for Active; 'I' for Inactive)
    1  A    between atoms: N1_11  and  O2_12 

>  <TORSDO>
F 1

$$$$
../pdbqt/decoy.vina_out.42.pdbqt
 OpenBabel06052021513D

 13 13  0  0  0  0  0  0  0  0999 V2000
  -25.4110   65.9770   24.9570 C   0  0  0  0  0  0  0  0  0  0  0  0
  -26.1250   66.3980   23.9080 C   0  0  0  0  0  0  0  0  0  0  0  0
  -25.5080   67.3210   22.8930 C   0  0  0  0  0  0  0  0  0  0  0  0
  -27.5490   66.0130   23.7920 C   0  0  0  0  0  0  0  0  0  0  0  0
  -28.2290   66.4390   22.8180 O   0  0  0  0  0  0  0  0  0  0  0  0
  -28.1770   65.1300   24.8120 C   0  0  0  0  0  0  0  0  0  0  0  0
  -29.6310   64.7440   24.6520 C   0  0  0  0  0  0  0  0  0  0  0  0
  -27.4270   64.6490   25.8370 C   0  0  0  0  0  0  0  0  0  0  0  0
  -28.0260   63.7230   26.8740 C   0  0  0  0  0  0  0  0  0  0  0  0
  -26.0100   65.0910   25.9820 C   0  0  0  0  0  0  0  0  0  0  0  0
  -25.3150   64.7070   27.0100 N   0  0  0  0  0  0  0  0  0  0  0  0
  -24.0040   65.0850   27.2040 O   0  0  0  0  0  0  0  0  0  0  0  0
  -23.0160   64.1160   27.5070 C   0  0  0  0  0  0  0  0  0  0  0  0
  1 10  1  0  0  0  0
  2  1  2  0  0  0  0
  3  2  1  0  0  0  0
  4  2  1  0  0  0  0
  4  6  1  0  0  0  0
  5  4  2  0  0  0  0
  6  8  2  0  0  0  0
  7  6  1  0  0  0  0
  8 10  1  0  0  0  0
  8  9  1  0  0  0  0
 10 11  2  0  0  0  0
 11 12  1  0  0  0  0
 12 13  1  0  0  0  0
M  END
>  <REMARK>
 VINA RESULT:      -6.7      1.584      3.208
  1 active torsions:
  status: ('A' for Active; 'I' for Inactive)
    1  A    between atoms: N1_11  and  O2_12 

>  <TORSDO>
F 1

$$$$
../pdbqt/decoy.vina_out.42.pdbqt
 OpenBabel06052021513D

 13 13  0  0  0  0  0  0  0  0999 V2000
  -27.3120   65.1510   25.3010 C   0  0  0  0  0  0  0  0  0  0  0  0
  -26.9900   65.9020   24.2420 C   0  0  0  0  0  0  0  0  0  0  0  0
  -28.0350   66.2560   23.2190 C   0  0  0  0  0  0  0  0  0  0  0  0
  -25.5840   66.3180   24.0420 C   0  0  0  0  0  0  0  0  0  0  0  0
  -25.2780   66.9990   23.0250 O   0  0  0  0  0  0  0  0  0  0  0  0
  -24.5380   65.9410   25.0310 C   0  0  0  0  0  0  0  0  0  0  0  0
  -23.1140   66.3980   24.8020 C   0  0  0  0  0  0  0  0  0  0  0  0
  -24.8850   65.2380   26.1400 C   0  0  0  0  0  0  0  0  0  0  0  0
  -23.8520   64.8660   27.1820 C   0  0  0  0  0  0  0  0  0  0  0  0
  -26.2910   64.7690   26.3040 C   0  0  0  0  0  0  0  0  0  0  0  0
  -26.6090   64.0190   27.3170 N   0  0  0  0  0  0  0  0  0  0  0  0
  -27.8880   63.5490   27.5200 O   0  0  0  0  0  0  0  0  0  0  0  0
  -28.4270   63.4840   28.8280 C   0  0  0  0  0  0  0  0  0  0  0  0
  1 10  1  0  0  0  0
  2  1  2  0  0  0  0
  3  2  1  0  0  0  0
  4  2  1  0  0  0  0
  4  6  1  0  0  0  0
  5  4  2  0  0  0  0
  6  8  2  0  0  0  0
  7  6  1  0  0  0  0
  8 10  1  0  0  0  0
  8  9  1  0  0  0  0
 10 11  2  0  0  0  0
 11 12  1  0  0  0  0
 12 13  1  0  0  0  0
M  END
>  <REMARK>
 VINA RESULT:      -6.7      1.365      1.616
  1 active torsions:
  status: ('A' for Active; 'I' for Inactive)
    1  A    between atoms: N1_11  and  O2_12 

>  <TORSDO>
F 1

$$$$
../pdbqt/decoy.vina_out.42.pdbqt
 OpenBabel06052021513D

 13 13  0  0  0  0  0  0  0  0999 V2000
  -24.9060   66.2090   24.7170 C   0  0  0  0  0  0  0  0  0  0  0  0
  -26.0170   66.3850   23.9950 C   0  0  0  0  0  0  0  0  0  0  0  0
  -25.9940   67.2610   22.7720 C   0  0  0  0  0  0  0  0  0  0  0  0
  -27.2880   65.7780   24.4490 C   0  0  0  0  0  0  0  0  0  0  0  0
  -28.3410   65.9740   23.7830 O   0  0  0  0  0  0  0  0  0  0  0  0
  -27.3270   64.9410   25.6790 C   0  0  0  0  0  0  0  0  0  0  0  0
  -28.6410   64.3230   26.1040 C   0  0  0  0  0  0  0  0  0  0  0  0
  -26.1800   64.7080   26.3690 C   0  0  0  0  0  0  0  0  0  0  0  0
  -26.1780   63.8350   27.6050 C   0  0  0  0  0  0  0  0  0  0  0  0
  -24.9160   65.3740   25.9410 C   0  0  0  0  0  0  0  0  0  0  0  0
  -23.8360   65.2270   26.6490 N   0  0  0  0  0  0  0  0  0  0  0  0
  -22.6400   65.8210   26.3100 O   0  0  0  0  0  0  0  0  0  0  0  0
  -21.4300   65.0890   26.3900 C   0  0  0  0  0  0  0  0  0  0  0  0
  1 10  1  0  0  0  0
  2  4  1  0  0  0  0
  2  1  2  0  0  0  0
  3  2  1  0  0  0  0
  4  6  1  0  0  0  0
  5  4  2  0  0  0  0
  6  7  1  0  0  0  0
  6  8  2  0  0  0  0
  8  9  1  0  0  0  0
 10  8  1  0  0  0  0
 10 11  2  0  0  0  0
 12 13  1  0  0  0  0
 12 11  1  0  0  0  0
M  END
>  <REMARK>
 VINA RESULT:      -6.6      2.038      3.578
  1 active torsions:
  status: ('A' for Active; 'I' for Inactive)
    1  A    between atoms: N1_11  and  O2_12 

>  <TORSDO>
F 1

$$$$
../pdbqt/decoy.vina_out.42.pdbqt
 OpenBabel06052021513D

 13 13  0  0  0  0  0  0  0  0999 V2000
  -24.5550   64.4770   25.9590 C   0  0  0  0  0  0  0  0  0  0  0  0
  -24.1880   63.4630   26.7510 C   0  0  0  0  0  0  0  0  0  0  0  0
  -22.7650   62.9770   26.7470 C   0  0  0  0  0  0  0  0  0  0  0  0
  -25.2070   62.7720   27.5720 C   0  0  0  0  0  0  0  0  0  0  0  0
  -24.8630   61.7950   28.2920 O   0  0  0  0  0  0  0  0  0  0  0  0
  -26.6240   63.2250   27.5530 C   0  0  0  0  0  0  0  0  0  0  0  0
  -27.6360   62.5040   28.4180 C   0  0  0  0  0  0  0  0  0  0  0  0
  -26.9760   64.2990   26.8010 C   0  0  0  0  0  0  0  0  0  0  0  0
  -28.4030   64.8060   26.7840 C   0  0  0  0  0  0  0  0  0  0  0  0
  -25.9580   64.9510   25.9280 C   0  0  0  0  0  0  0  0  0  0  0  0
  -26.3090   65.9220   25.1390 N   0  0  0  0  0  0  0  0  0  0  0  0
  -25.4170   66.5610   24.3050 O   0  0  0  0  0  0  0  0  0  0  0  0
  -25.8850   67.4180   23.2790 C   0  0  0  0  0  0  0  0  0  0  0  0
  1  2  2  0  0  0  0
  2  4  1  0  0  0  0
  3  2  1  0  0  0  0
  4  5  2  0  0  0  0
  6  4  1  0  0  0  0
  6  7  1  0  0  0  0
  8  6  2  0  0  0  0
  9  8  1  0  0  0  0
 10  1  1  0  0  0  0
 10  8  1  0  0  0  0
 11 10  2  0  0  0  0
 12 11  1  0  0  0  0
 13 12  1  0  0  0  0
M  END
>  <REMARK>
 VINA RESULT:      -6.6      1.932      5.339
  1 active torsions:
  status: ('A' for Active; 'I' for Inactive)
    1  A    between atoms: N1_11  and  O2_12 

>  <TORSDO>
F 1

$$$$
../pdbqt/decoy.vina_out.42.pdbqt
 OpenBabel06052021513D

 13 13  0  0  0  0  0  0  0  0999 V2000
  -25.9590   64.6030   26.8180 C   0  0  0  0  0  0  0  0  0  0  0  0
  -27.0700   64.8240   26.1070 C   0  0  0  0  0  0  0  0  0  0  0  0
  -28.3740   64.2040   26.5280 C   0  0  0  0  0  0  0  0  0  0  0  0
  -26.9930   65.6180   24.8600 C   0  0  0  0  0  0  0  0  0  0  0  0
  -28.0370   65.7970   24.1750 O   0  0  0  0  0  0  0  0  0  0  0  0
  -25.6990   66.2040   24.4180 C   0  0  0  0  0  0  0  0  0  0  0  0
  -25.6620   67.0230   23.1460 C   0  0  0  0  0  0  0  0  0  0  0  0
  -24.5890   66.0340   25.1820 C   0  0  0  0  0  0  0  0  0  0  0  0
  -23.2640   66.6440   24.7780 C   0  0  0  0  0  0  0  0  0  0  0  0
  -24.6600   65.1820   26.4030 C   0  0  0  0  0  0  0  0  0  0  0  0
  -23.5820   64.9420   27.0880 N   0  0  0  0  0  0  0  0  0  0  0  0
  -23.5810   64.1580   28.2210 O   0  0  0  0  0  0  0  0  0  0  0  0
  -22.6350   63.1130   28.3670 C   0  0  0  0  0  0  0  0  0  0  0  0
  2  3  1  0  0  0  0
  2  1  2  0  0  0  0
  4  2  1  0  0  0  0
  5  4  2  0  0  0  0
  6  4  1  0  0  0  0
  6  8  2  0  0  0  0
  7  6  1  0  0  0  0
  8 10  1  0  0  0  0
  9  8  1  0  0  0  0
 10  1  1  0  0  0  0
 10 11  2  0  0  0  0
 11 12  1  0  0  0  0
 12 13  1  0  0  0  0
M  END
>  <REMARK>
 VINA RESULT:      -6.4      1.939      2.249
  1 active torsions:
  status: ('A' for Active; 'I' for Inactive)
    1  A    between atoms: N1_11  and  O2_12 

>  <TORSDO>
F 1

$$$$
../pdbqt/decoy.vina_out.42.pdbqt
 OpenBabel06052021513D

 13 13  0  0  0  0  0  0  0  0999 V2000
  -24.4200   64.5690   25.7860 C   0  0  0  0  0  0  0  0  0  0  0  0
  -25.6350   65.1000   25.6110 C   0  0  0  0  0  0  0  0  0  0  0  0
  -25.8290   66.2500   24.6620 C   0  0  0  0  0  0  0  0  0  0  0  0
  -26.7730   64.6010   26.4160 C   0  0  0  0  0  0  0  0  0  0  0  0
  -27.9100   65.1270   26.2730 O   0  0  0  0  0  0  0  0  0  0  0  0
  -26.5800   63.4880   27.3840 C   0  0  0  0  0  0  0  0  0  0  0  0
  -27.7700   62.9940   28.1790 C   0  0  0  0  0  0  0  0  0  0  0  0
  -25.3600   62.9060   27.5050 C   0  0  0  0  0  0  0  0  0  0  0  0
  -25.1370   61.7500   28.4570 C   0  0  0  0  0  0  0  0  0  0  0  0
  -24.2040   63.4540   26.7380 C   0  0  0  0  0  0  0  0  0  0  0  0
  -23.0150   62.9600   26.9170 N   0  0  0  0  0  0  0  0  0  0  0  0
  -21.9080   63.4270   26.2440 O   0  0  0  0  0  0  0  0  0  0  0  0
  -20.8670   62.5400   25.8750 C   0  0  0  0  0  0  0  0  0  0  0  0
  1 10  1  0  0  0  0
  2  1  2  0  0  0  0
  2  4  1  0  0  0  0
  3  2  1  0  0  0  0
  4  6  1  0  0  0  0
  5  4  2  0  0  0  0
  6  8  2  0  0  0  0
  6  7  1  0  0  0  0
  8  9  1  0  0  0  0
 10 11  2  0  0  0  0
 10  8  1  0  0  0  0
 12 11  1  0  0  0  0
 13 12  1  0  0  0  0
M  END
>  <REMARK>
 VINA RESULT:      -6.3      2.532      4.210
  1 active torsions:
  status: ('A' for Active; 'I' for Inactive)
    1  A    between atoms: N1_11  and  O2_12 

>  <TORSDO>
F 1

$$$$
