../pdbqt/decoy.vina_out.46.pdbqt
 OpenBabel06052021513D

 20 22  0  0  1  0  0  0  0  0999 V2000
  -27.9840   63.9220   27.5050 C   0  0  0  0  0  0  0  0  0  0  0  0
  -28.9960   64.4810   28.2370 N   0  0  0  0  0  0  0  0  0  0  0  0
  -29.0210   64.4050   29.6060 C   0  0  2  0  0  0  0  0  0  0  0  0
  -30.1420   65.0450   30.3600 C   0  0  0  0  0  0  0  0  0  0  0  0
  -28.0100   63.7730   30.2800 N   0  0  0  0  0  0  0  0  0  0  0  0
  -28.0090   63.7160   31.3220 H   0  0  0  0  0  0  0  0  0  0  0  0
  -27.0020   63.2200   29.5590 C   0  0  0  0  0  0  0  0  0  0  0  0
  -26.9670   63.2780   28.2000 C   0  0  0  0  0  0  0  0  0  0  0  0
  -25.8240   62.6240   27.7900 C   0  0  0  0  0  0  0  0  0  0  0  0
  -25.2140   62.1940   28.9670 C   0  0  0  0  0  0  0  0  0  0  0  0
  -25.9400   62.5630   30.0490 N   0  0  0  0  0  0  0  0  0  0  0  0
  -25.7190   62.3730   31.0520 H   0  0  0  0  0  0  0  0  0  0  0  0
  -27.9680   63.9870   26.2070 N   0  0  0  0  0  0  0  0  0  0  0  0
  -28.3660   65.1590   25.4260 C   0  0  0  0  0  0  0  0  0  0  0  0
  -27.1600   65.8400   24.8360 C   0  0  0  0  0  0  0  0  0  0  0  0
  -27.2980   66.7360   23.7620 C   0  0  0  0  0  0  0  0  0  0  0  0
  -26.1690   67.3450   23.2040 C   0  0  0  0  0  0  0  0  0  0  0  0
  -24.8980   67.0650   23.7140 C   0  0  0  0  0  0  0  0  0  0  0  0
  -24.7530   66.1730   24.7800 C   0  0  0  0  0  0  0  0  0  0  0  0
  -25.8790   65.5610   25.3400 C   0  0  0  0  0  0  0  0  0  0  0  0
  1  8  1  0  0  0  0
  1  2  2  0  0  0  0
  2  3  1  0  0  0  0
  3  5  1  0  0  0  0
  3  4  1  1  0  0  0
  5  6  1  0  0  0  0
  7 11  1  0  0  0  0
  7  5  1  0  0  0  0
  8  7  2  0  0  0  0
  9  8  1  0  0  0  0
  9 10  2  0  0  0  0
 10 11  1  0  0  0  0
 11 12  1  0  0  0  0
 13  1  1  0  0  0  0
 14 13  1  0  0  0  0
 15 20  1  0  0  0  0
 15 14  1  0  0  0  0
 16 15  2  0  0  0  0
 17 18  2  0  0  0  0
 17 16  1  0  0  0  0
 18 19  1  0  0  0  0
 19 20  2  0  0  0  0
M  END
>  <MODEL>
1

>  <REMARK>
 VINA RESULT:      -7.7      0.000      0.000
  3 active torsions:
  status: ('A' for Active; 'I' for Inactive)
    1  A    between atoms: C4_4  and  C5_5 
    2  A    between atoms: C5_5  and  N1_6 
    3  A    between atoms: N1_6  and  C6_7 

>  <TORSDO>
F 3

$$$$
../pdbqt/decoy.vina_out.46.pdbqt
 OpenBabel06052021513D

 20 22  0  0  1  0  0  0  0  0999 V2000
  -26.1660   65.1270   25.9100 C   0  0  0  0  0  0  0  0  0  0  0  0
  -27.0500   65.6580   25.0100 N   0  0  0  0  0  0  0  0  0  0  0  0
  -28.3710   65.2910   24.9950 C   0  0  2  0  0  0  0  0  0  0  0  0
  -29.2980   65.9110   24.0010 C   0  0  0  0  0  0  0  0  0  0  0  0
  -28.8440   64.3840   25.9070 N   0  0  0  0  0  0  0  0  0  0  0  0
  -29.8490   64.1030   25.9160 H   0  0  0  0  0  0  0  0  0  0  0  0
  -27.9730   63.8570   26.8030 C   0  0  0  0  0  0  0  0  0  0  0  0
  -26.6570   64.2030   26.8250 C   0  0  0  0  0  0  0  0  0  0  0  0
  -26.0610   63.4920   27.8450 C   0  0  0  0  0  0  0  0  0  0  0  0
  -27.0890   62.7300   28.4000 C   0  0  0  0  0  0  0  0  0  0  0  0
  -28.2590   62.9590   27.7580 N   0  0  0  0  0  0  0  0  0  0  0  0
  -29.1860   62.5250   27.9630 H   0  0  0  0  0  0  0  0  0  0  0  0
  -24.9120   65.4700   25.9150 N   0  0  0  0  0  0  0  0  0  0  0  0
  -24.0180   65.3780   24.7600 C   0  0  0  0  0  0  0  0  0  0  0  0
  -23.1360   64.1630   24.8660 C   0  0  0  0  0  0  0  0  0  0  0  0
  -22.7340   63.6790   26.1230 C   0  0  0  0  0  0  0  0  0  0  0  0
  -21.8940   62.5630   26.2110 C   0  0  0  0  0  0  0  0  0  0  0  0
  -21.4510   61.9260   25.0490 C   0  0  0  0  0  0  0  0  0  0  0  0
  -21.8440   62.4040   23.7960 C   0  0  0  0  0  0  0  0  0  0  0  0
  -22.6820   63.5190   23.7030 C   0  0  0  0  0  0  0  0  0  0  0  0
  1 13  1  0  0  0  0
  1  8  1  0  0  0  0
  2  1  2  0  0  0  0
  3  4  1  1  0  0  0
  3  2  1  0  0  0  0
  3  5  1  0  0  0  0
  5  6  1  0  0  0  0
  5  7  1  0  0  0  0
  7  8  2  0  0  0  0
  7 11  1  0  0  0  0
  8  9  1  0  0  0  0
  9 10  2  0  0  0  0
 11 12  1  0  0  0  0
 11 10  1  0  0  0  0
 14 15  1  0  0  0  0
 14 13  1  0  0  0  0
 15 16  2  0  0  0  0
 16 17  1  0  0  0  0
 18 17  2  0  0  0  0
 19 18  1  0  0  0  0
 20 19  2  0  0  0  0
 20 15  1  0  0  0  0
M  END
>  <REMARK>
 VINA RESULT:      -7.6      2.689      4.420
  3 active torsions:
  status: ('A' for Active; 'I' for Inactive)
    1  A    between atoms: C4_4  and  C5_5 
    2  A    between atoms: C5_5  and  N1_6 
    3  A    between atoms: N1_6  and  C6_7 

>  <TORSDO>
F 3

$$$$
../pdbqt/decoy.vina_out.46.pdbqt
 OpenBabel06052021513D

 20 22  0  0  1  0  0  0  0  0999 V2000
  -25.2170   65.3740   25.7730 C   0  0  0  0  0  0  0  0  0  0  0  0
  -26.1340   64.7410   26.5660 N   0  0  0  0  0  0  0  0  0  0  0  0
  -27.4780   64.7990   26.3010 C   0  0  2  0  0  0  0  0  0  0  0  0
  -28.4380   64.0770   27.1910 C   0  0  0  0  0  0  0  0  0  0  0  0
  -27.9350   65.4880   25.2090 N   0  0  0  0  0  0  0  0  0  0  0  0
  -28.9550   65.5330   24.9870 H   0  0  0  0  0  0  0  0  0  0  0  0
  -27.0310   66.1160   24.4170 C   0  0  0  0  0  0  0  0  0  0  0  0
  -25.6940   66.0760   24.6720 C   0  0  0  0  0  0  0  0  0  0  0  0
  -25.0660   66.8090   23.6870 C   0  0  0  0  0  0  0  0  0  0  0  0
  -26.0960   67.2650   22.8660 C   0  0  0  0  0  0  0  0  0  0  0  0
  -27.2990   66.8360   23.3170 N   0  0  0  0  0  0  0  0  0  0  0  0
  -28.2350   67.0290   22.8980 H   0  0  0  0  0  0  0  0  0  0  0  0
  -23.9440   65.3250   26.0320 N   0  0  0  0  0  0  0  0  0  0  0  0
  -23.2710   64.2080   26.6950 C   0  0  0  0  0  0  0  0  0  0  0  0
  -22.3760   63.4780   25.7280 C   0  0  0  0  0  0  0  0  0  0  0  0
  -22.6950   63.4220   24.3610 C   0  0  0  0  0  0  0  0  0  0  0  0
  -21.8700   62.7210   23.4740 C   0  0  0  0  0  0  0  0  0  0  0  0
  -20.7250   62.0730   23.9460 C   0  0  0  0  0  0  0  0  0  0  0  0
  -20.4040   62.1230   25.3050 C   0  0  0  0  0  0  0  0  0  0  0  0
  -21.2260   62.8210   26.1950 C   0  0  0  0  0  0  0  0  0  0  0  0
  1 13  1  0  0  0  0
  1  2  2  0  0  0  0
  3  2  1  0  0  0  0
  3  4  1  6  0  0  0
  5  3  1  0  0  0  0
  6  5  1  0  0  0  0
  7  8  2  0  0  0  0
  7  5  1  0  0  0  0
  8  1  1  0  0  0  0
  9  8  1  0  0  0  0
 10 11  1  0  0  0  0
 10  9  2  0  0  0  0
 11  7  1  0  0  0  0
 12 11  1  0  0  0  0
 13 14  1  0  0  0  0
 15 20  1  0  0  0  0
 15 14  1  0  0  0  0
 16 15  2  0  0  0  0
 17 18  2  0  0  0  0
 17 16  1  0  0  0  0
 18 19  1  0  0  0  0
 19 20  2  0  0  0  0
M  END
>  <REMARK>
 VINA RESULT:      -7.6      3.305      5.561
  3 active torsions:
  status: ('A' for Active; 'I' for Inactive)
    1  A    between atoms: C4_4  and  C5_5 
    2  A    between atoms: C5_5  and  N1_6 
    3  A    between atoms: N1_6  and  C6_7 

>  <TORSDO>
F 3

$$$$
../pdbqt/decoy.vina_out.46.pdbqt
 OpenBabel06052021513D

 20 22  0  0  1  0  0  0  0  0999 V2000
  -24.0740   63.6300   27.0380 C   0  0  0  0  0  0  0  0  0  0  0  0
  -22.7650   63.7360   27.4220 N   0  0  0  0  0  0  0  0  0  0  0  0
  -22.3170   63.2100   28.6060 C   0  0  2  0  0  0  0  0  0  0  0  0
  -20.8740   63.3390   28.9720 C   0  0  0  0  0  0  0  0  0  0  0  0
  -23.1810   62.5420   29.4330 N   0  0  0  0  0  0  0  0  0  0  0  0
  -22.8530   62.1260   30.3330 H   0  0  0  0  0  0  0  0  0  0  0  0
  -24.4790   62.4310   29.0560 C   0  0  0  0  0  0  0  0  0  0  0  0
  -24.9420   62.9560   27.8890 C   0  0  0  0  0  0  0  0  0  0  0  0
  -26.2900   62.6700   27.8150 C   0  0  0  0  0  0  0  0  0  0  0  0
  -26.5710   61.9640   28.9830 C   0  0  0  0  0  0  0  0  0  0  0  0
  -25.4580   61.8200   29.7400 N   0  0  0  0  0  0  0  0  0  0  0  0
  -25.3810   61.3360   30.6620 H   0  0  0  0  0  0  0  0  0  0  0  0
  -24.4980   64.1390   25.9180 N   0  0  0  0  0  0  0  0  0  0  0  0
  -24.8260   65.5500   25.7160 C   0  0  0  0  0  0  0  0  0  0  0  0
  -26.1690   65.6930   25.0490 C   0  0  0  0  0  0  0  0  0  0  0  0
  -27.3350   65.2340   25.6840 C   0  0  0  0  0  0  0  0  0  0  0  0
  -28.5750   65.3490   25.0470 C   0  0  0  0  0  0  0  0  0  0  0  0
  -28.6580   65.9210   23.7740 C   0  0  0  0  0  0  0  0  0  0  0  0
  -27.5020   66.3770   23.1360 C   0  0  0  0  0  0  0  0  0  0  0  0
  -26.2610   66.2620   23.7680 C   0  0  0  0  0  0  0  0  0  0  0  0
  1  2  2  0  0  0  0
  1  8  1  0  0  0  0
  2  3  1  0  0  0  0
  3  4  1  6  0  0  0
  3  5  1  0  0  0  0
  5  6  1  0  0  0  0
  7  5  1  0  0  0  0
  7 11  1  0  0  0  0
  8  7  2  0  0  0  0
  9  8  1  0  0  0  0
  9 10  2  0  0  0  0
 10 11  1  0  0  0  0
 11 12  1  0  0  0  0
 13  1  1  0  0  0  0
 14 13  1  0  0  0  0
 15 16  2  0  0  0  0
 15 14  1  0  0  0  0
 17 16  1  0  0  0  0
 18 17  2  0  0  0  0
 19 20  2  0  0  0  0
 19 18  1  0  0  0  0
 20 15  1  0  0  0  0
M  END
>  <REMARK>
 VINA RESULT:      -7.5      2.330      4.135
  3 active torsions:
  status: ('A' for Active; 'I' for Inactive)
    1  A    between atoms: C4_4  and  C5_5 
    2  A    between atoms: C5_5  and  N1_6 
    3  A    between atoms: N1_6  and  C6_7 

>  <TORSDO>
F 3

$$$$
../pdbqt/decoy.vina_out.46.pdbqt
 OpenBabel06052021513D

 20 22  0  0  1  0  0  0  0  0999 V2000
  -24.8800   65.2440   25.5540 C   0  0  0  0  0  0  0  0  0  0  0  0
  -25.6730   64.4900   26.3750 N   0  0  0  0  0  0  0  0  0  0  0  0
  -27.0410   64.5520   26.3120 C   0  0  2  0  0  0  0  0  0  0  0  0
  -27.8620   63.6950   27.2210 C   0  0  0  0  0  0  0  0  0  0  0  0
  -27.6520   65.3710   25.3990 N   0  0  0  0  0  0  0  0  0  0  0  0
  -28.6920   65.4220   25.3310 H   0  0  0  0  0  0  0  0  0  0  0  0
  -26.8710   66.1190   24.5810 C   0  0  0  0  0  0  0  0  0  0  0  0
  -25.5120   66.0760   24.6370 C   0  0  0  0  0  0  0  0  0  0  0  0
  -25.0330   66.9490   23.6820 C   0  0  0  0  0  0  0  0  0  0  0  0
  -26.1710   67.4860   23.0840 C   0  0  0  0  0  0  0  0  0  0  0  0
  -27.2950   66.9740   23.6380 N   0  0  0  0  0  0  0  0  0  0  0  0
  -28.2820   67.2000   23.3840 H   0  0  0  0  0  0  0  0  0  0  0  0
  -23.5830   65.1900   25.6230 N   0  0  0  0  0  0  0  0  0  0  0  0
  -22.8060   65.3580   26.8510 C   0  0  0  0  0  0  0  0  0  0  0  0
  -21.9820   66.6160   26.7910 C   0  0  0  0  0  0  0  0  0  0  0  0
  -21.8400   67.3210   25.5840 C   0  0  0  0  0  0  0  0  0  0  0  0
  -21.0520   68.4760   25.5320 C   0  0  0  0  0  0  0  0  0  0  0  0
  -20.4030   68.9340   26.6830 C   0  0  0  0  0  0  0  0  0  0  0  0
  -20.5380   68.2360   27.8860 C   0  0  0  0  0  0  0  0  0  0  0  0
  -21.3230   67.0810   27.9420 C   0  0  0  0  0  0  0  0  0  0  0  0
  1 13  1  0  0  0  0
  1  2  2  0  0  0  0
  3  2  1  0  0  0  0
  3  4  1  6  0  0  0
  5  3  1  0  0  0  0
  6  5  1  0  0  0  0
  7  8  2  0  0  0  0
  7  5  1  0  0  0  0
  8  1  1  0  0  0  0
  9  8  1  0  0  0  0
 10 11  1  0  0  0  0
 10  9  2  0  0  0  0
 11  7  1  0  0  0  0
 12 11  1  0  0  0  0
 13 14  1  0  0  0  0
 15 14  1  0  0  0  0
 15 20  2  0  0  0  0
 16 15  1  0  0  0  0
 17 16  2  0  0  0  0
 17 18  1  0  0  0  0
 18 19  2  0  0  0  0
 19 20  1  0  0  0  0
M  END
>  <REMARK>
 VINA RESULT:      -7.3      3.208      5.535
  3 active torsions:
  status: ('A' for Active; 'I' for Inactive)
    1  A    between atoms: C4_4  and  C5_5 
    2  A    between atoms: C5_5  and  N1_6 
    3  A    between atoms: N1_6  and  C6_7 

>  <TORSDO>
F 3

$$$$
../pdbqt/decoy.vina_out.46.pdbqt
 OpenBabel06052021513D

 20 22  0  0  1  0  0  0  0  0999 V2000
  -20.4080   64.8950   24.3170 C   0  0  0  0  0  0  0  0  0  0  0  0
  -19.6360   65.4080   23.3110 N   0  0  0  0  0  0  0  0  0  0  0  0
  -18.9580   64.5960   22.4370 C   0  0  2  0  0  0  0  0  0  0  0  0
  -18.1400   65.2060   21.3460 C   0  0  0  0  0  0  0  0  0  0  0  0
  -19.0580   63.2340   22.5460 N   0  0  0  0  0  0  0  0  0  0  0  0
  -18.5570   62.6020   21.8820 H   0  0  0  0  0  0  0  0  0  0  0  0
  -19.8240   62.7200   23.5390 C   0  0  0  0  0  0  0  0  0  0  0  0
  -20.4950   63.5120   24.4200 C   0  0  0  0  0  0  0  0  0  0  0  0
  -21.1680   62.6800   25.2910 C   0  0  0  0  0  0  0  0  0  0  0  0
  -20.8530   61.3890   24.8700 C   0  0  0  0  0  0  0  0  0  0  0  0
  -20.0300   61.4190   23.7960 N   0  0  0  0  0  0  0  0  0  0  0  0
  -19.6380   60.6010   23.2790 H   0  0  0  0  0  0  0  0  0  0  0  0
  -21.0410   65.6680   25.1490 N   0  0  0  0  0  0  0  0  0  0  0  0
  -22.0450   66.6610   24.7650 C   0  0  0  0  0  0  0  0  0  0  0  0
  -23.4310   66.1650   25.0800 C   0  0  0  0  0  0  0  0  0  0  0  0
  -24.5260   66.5530   24.2890 C   0  0  0  0  0  0  0  0  0  0  0  0
  -25.8140   66.1070   24.6040 C   0  0  0  0  0  0  0  0  0  0  0  0
  -26.0170   65.2730   25.7070 C   0  0  0  0  0  0  0  0  0  0  0  0
  -24.9330   64.8860   26.4990 C   0  0  0  0  0  0  0  0  0  0  0  0
  -23.6440   65.3310   26.1900 C   0  0  0  0  0  0  0  0  0  0  0  0
  1  8  1  0  0  0  0
  1 13  1  0  0  0  0
  2  1  2  0  0  0  0
  3  4  1  6  0  0  0
  3  5  1  0  0  0  0
  3  2  1  0  0  0  0
  5  7  1  0  0  0  0
  6  5  1  0  0  0  0
  7 11  1  0  0  0  0
  7  8  2  0  0  0  0
  8  9  1  0  0  0  0
 10  9  2  0  0  0  0
 11 10  1  0  0  0  0
 12 11  1  0  0  0  0
 14 15  1  0  0  0  0
 14 13  1  0  0  0  0
 15 20  2  0  0  0  0
 16 17  2  0  0  0  0
 16 15  1  0  0  0  0
 17 18  1  0  0  0  0
 18 19  2  0  0  0  0
 20 19  1  0  0  0  0
M  END
>  <REMARK>
 VINA RESULT:      -7.3      5.569      7.897
  3 active torsions:
  status: ('A' for Active; 'I' for Inactive)
    1  A    between atoms: C4_4  and  C5_5 
    2  A    between atoms: C5_5  and  N1_6 
    3  A    between atoms: N1_6  and  C6_7 

>  <TORSDO>
F 3

$$$$
../pdbqt/decoy.vina_out.46.pdbqt
 OpenBabel06052021513D

 20 22  0  0  1  0  0  0  0  0999 V2000
  -23.1260   64.7700   25.3380 C   0  0  0  0  0  0  0  0  0  0  0  0
  -21.8670   65.2600   25.5500 N   0  0  0  0  0  0  0  0  0  0  0  0
  -21.4990   66.5110   25.1250 C   0  0  2  0  0  0  0  0  0  0  0  0
  -20.1140   67.0050   25.3950 C   0  0  0  0  0  0  0  0  0  0  0  0
  -22.4050   67.3140   24.4860 N   0  0  0  0  0  0  0  0  0  0  0  0
  -22.1450   68.2740   24.1660 H   0  0  0  0  0  0  0  0  0  0  0  0
  -23.6570   66.8360   24.2760 C   0  0  0  0  0  0  0  0  0  0  0  0
  -24.0350   65.5930   24.6820 C   0  0  0  0  0  0  0  0  0  0  0  0
  -25.3540   65.4230   24.3160 C   0  0  0  0  0  0  0  0  0  0  0  0
  -25.7070   66.6160   23.6870 C   0  0  0  0  0  0  0  0  0  0  0  0
  -24.6640   67.4790   23.6660 N   0  0  0  0  0  0  0  0  0  0  0  0
  -24.6490   68.4400   23.2580 H   0  0  0  0  0  0  0  0  0  0  0  0
  -23.4690   63.5800   25.7340 N   0  0  0  0  0  0  0  0  0  0  0  0
  -23.4490   63.1260   27.1250 C   0  0  0  0  0  0  0  0  0  0  0  0
  -24.8440   62.8290   27.6070 C   0  0  0  0  0  0  0  0  0  0  0  0
  -25.9240   63.6370   27.2130 C   0  0  0  0  0  0  0  0  0  0  0  0
  -27.2130   63.3680   27.6850 C   0  0  0  0  0  0  0  0  0  0  0  0
  -27.4320   62.2940   28.5520 C   0  0  0  0  0  0  0  0  0  0  0  0
  -26.3620   61.4880   28.9500 C   0  0  0  0  0  0  0  0  0  0  0  0
  -25.0720   61.7540   28.4820 C   0  0  0  0  0  0  0  0  0  0  0  0
  1  2  2  0  0  0  0
  1 13  1  0  0  0  0
  3  4  1  1  0  0  0
  3  2  1  0  0  0  0
  5  3  1  0  0  0  0
  6  5  1  0  0  0  0
  7  5  1  0  0  0  0
  7  8  2  0  0  0  0
  8  1  1  0  0  0  0
  9  8  1  0  0  0  0
 10  9  2  0  0  0  0
 11 10  1  0  0  0  0
 11  7  1  0  0  0  0
 12 11  1  0  0  0  0
 13 14  1  0  0  0  0
 14 15  1  0  0  0  0
 15 20  1  0  0  0  0
 16 15  2  0  0  0  0
 16 17  1  0  0  0  0
 17 18  2  0  0  0  0
 18 19  1  0  0  0  0
 20 19  2  0  0  0  0
M  END
>  <REMARK>
 VINA RESULT:      -7.2      3.250      6.840
  3 active torsions:
  status: ('A' for Active; 'I' for Inactive)
    1  A    between atoms: C4_4  and  C5_5 
    2  A    between atoms: C5_5  and  N1_6 
    3  A    between atoms: N1_6  and  C6_7 

>  <TORSDO>
F 3

$$$$
../pdbqt/decoy.vina_out.46.pdbqt
 OpenBabel06052021513D

 20 22  0  0  1  0  0  0  0  0999 V2000
  -20.7320   64.7970   25.1510 C   0  0  0  0  0  0  0  0  0  0  0  0
  -20.0110   64.3890   24.0620 N   0  0  0  0  0  0  0  0  0  0  0  0
  -19.4810   65.2870   23.1720 C   0  0  2  0  0  0  0  0  0  0  0  0
  -18.6880   64.7900   22.0060 C   0  0  0  0  0  0  0  0  0  0  0  0
  -19.6510   66.6320   23.3670 N   0  0  0  0  0  0  0  0  0  0  0  0
  -19.2440   67.3290   22.7040 H   0  0  0  0  0  0  0  0  0  0  0  0
  -20.3620   67.0430   24.4460 C   0  0  0  0  0  0  0  0  0  0  0  0
  -20.9030   66.1650   25.3340 C   0  0  0  0  0  0  0  0  0  0  0  0
  -21.5550   66.9040   26.2990 C   0  0  0  0  0  0  0  0  0  0  0  0
  -21.3620   68.2330   25.9240 C   0  0  0  0  0  0  0  0  0  0  0  0
  -20.6300   68.3120   24.7880 N   0  0  0  0  0  0  0  0  0  0  0  0
  -20.3380   69.1800   24.2850 H   0  0  0  0  0  0  0  0  0  0  0  0
  -21.2420   63.9430   25.9890 N   0  0  0  0  0  0  0  0  0  0  0  0
  -22.2890   62.9750   25.6590 C   0  0  0  0  0  0  0  0  0  0  0  0
  -23.6040   63.3890   26.2620 C   0  0  0  0  0  0  0  0  0  0  0  0
  -24.1730   62.6520   27.3140 C   0  0  0  0  0  0  0  0  0  0  0  0
  -25.4080   63.0300   27.8520 C   0  0  0  0  0  0  0  0  0  0  0  0
  -26.0820   64.1440   27.3440 C   0  0  0  0  0  0  0  0  0  0  0  0
  -25.5240   64.8800   26.2960 C   0  0  0  0  0  0  0  0  0  0  0  0
  -24.2910   64.5050   25.7540 C   0  0  0  0  0  0  0  0  0  0  0  0
  1  8  1  0  0  0  0
  1 13  1  0  0  0  0
  2  1  2  0  0  0  0
  3  4  1  1  0  0  0
  3  5  1  0  0  0  0
  3  2  1  0  0  0  0
  5  7  1  0  0  0  0
  6  5  1  0  0  0  0
  7 11  1  0  0  0  0
  7  8  2  0  0  0  0
  8  9  1  0  0  0  0
 10  9  2  0  0  0  0
 11 10  1  0  0  0  0
 12 11  1  0  0  0  0
 14 13  1  0  0  0  0
 14 15  1  0  0  0  0
 15 16  1  0  0  0  0
 16 17  2  0  0  0  0
 18 17  1  0  0  0  0
 19 18  2  0  0  0  0
 20 15  2  0  0  0  0
 20 19  1  0  0  0  0
M  END
>  <REMARK>
 VINA RESULT:      -7.2      5.079      8.037
  3 active torsions:
  status: ('A' for Active; 'I' for Inactive)
    1  A    between atoms: C4_4  and  C5_5 
    2  A    between atoms: C5_5  and  N1_6 
    3  A    between atoms: N1_6  and  C6_7 

>  <TORSDO>
F 3

$$$$
../pdbqt/decoy.vina_out.46.pdbqt
 OpenBabel06052021513D

 20 22  0  0  1  0  0  0  0  0999 V2000
  -24.8930   65.2120   25.8340 C   0  0  0  0  0  0  0  0  0  0  0  0
  -24.8920   66.0200   24.7290 N   0  0  0  0  0  0  0  0  0  0  0  0
  -26.0510   66.3430   24.0720 C   0  0  2  0  0  0  0  0  0  0  0  0
  -25.9960   67.2410   22.8780 C   0  0  0  0  0  0  0  0  0  0  0  0
  -27.2540   65.8720   24.5260 N   0  0  0  0  0  0  0  0  0  0  0  0
  -28.1470   66.1180   24.0440 H   0  0  0  0  0  0  0  0  0  0  0  0
  -27.2620   65.0740   25.6230 C   0  0  0  0  0  0  0  0  0  0  0  0
  -26.1200   64.7350   26.2810 C   0  0  0  0  0  0  0  0  0  0  0  0
  -26.4780   63.9230   27.3360 C   0  0  0  0  0  0  0  0  0  0  0  0
  -27.8650   63.8140   27.2510 C   0  0  0  0  0  0  0  0  0  0  0  0
  -28.3410   64.5230   26.1990 N   0  0  0  0  0  0  0  0  0  0  0  0
  -29.3370   64.6170   25.9010 H   0  0  0  0  0  0  0  0  0  0  0  0
  -23.7910   64.8990   26.4490 N   0  0  0  0  0  0  0  0  0  0  0  0
  -22.4500   65.0490   25.8840 C   0  0  0  0  0  0  0  0  0  0  0  0
  -21.8450   66.3660   26.2910 C   0  0  0  0  0  0  0  0  0  0  0  0
  -21.5900   67.3630   25.3350 C   0  0  0  0  0  0  0  0  0  0  0  0
  -21.0050   68.5740   25.7190 C   0  0  0  0  0  0  0  0  0  0  0  0
  -20.6710   68.7970   27.0580 C   0  0  0  0  0  0  0  0  0  0  0  0
  -20.9190   67.8090   28.0140 C   0  0  0  0  0  0  0  0  0  0  0  0
  -21.5020   66.5960   27.6340 C   0  0  0  0  0  0  0  0  0  0  0  0
  1  8  1  0  0  0  0
  1 13  1  0  0  0  0
  2  1  2  0  0  0  0
  3  4  1  1  0  0  0
  3  5  1  0  0  0  0
  3  2  1  0  0  0  0
  5  7  1  0  0  0  0
  6  5  1  0  0  0  0
  7 11  1  0  0  0  0
  7  8  2  0  0  0  0
  8  9  1  0  0  0  0
 10  9  2  0  0  0  0
 11 10  1  0  0  0  0
 12 11  1  0  0  0  0
 14 15  1  0  0  0  0
 14 13  1  0  0  0  0
 15 20  2  0  0  0  0
 16 17  2  0  0  0  0
 16 15  1  0  0  0  0
 17 18  1  0  0  0  0
 18 19  2  0  0  0  0
 20 19  1  0  0  0  0
M  END
>  <REMARK>
 VINA RESULT:      -7.0      3.122      5.319
  3 active torsions:
  status: ('A' for Active; 'I' for Inactive)
    1  A    between atoms: C4_4  and  C5_5 
    2  A    between atoms: C5_5  and  N1_6 
    3  A    between atoms: N1_6  and  C6_7 

>  <TORSDO>
F 3

$$$$
