../pdbqt/decoy.vina_out.32.pdbqt
 OpenBabel06052021513D

 13 14  0  0  0  0  0  0  0  0999 V2000
  -22.0240   66.6810   25.1300 C   0  0  0  0  0  0  0  0  0  0  0  0
  -23.4660   66.2670   25.1590 C   0  0  0  0  0  0  0  0  0  0  0  0
  -23.9720   65.4970   26.2090 C   0  0  0  0  0  0  0  0  0  0  0  0
  -25.3130   65.1260   26.2140 C   0  0  0  0  0  0  0  0  0  0  0  0
  -26.1460   65.5270   25.1660 C   0  0  0  0  0  0  0  0  0  0  0  0
  -27.4540   65.1580   25.1810 N   0  0  0  0  0  0  0  0  0  0  0  0
  -28.3000   65.5230   24.1880 C   0  0  0  0  0  0  0  0  0  0  0  0
  -29.9780   65.0260   24.2490 Cl  0  0  0  0  0  0  0  0  0  0  0  0
  -27.8320   66.2900   23.1260 C   0  0  0  0  0  0  0  0  0  0  0  0
  -26.4880   66.6690   23.1090 C   0  0  0  0  0  0  0  0  0  0  0  0
  -26.0660   67.3650   22.1440 O   0  0  0  0  0  0  0  0  0  0  0  0
  -25.6480   66.2880   24.1280 N   0  0  0  0  0  0  0  0  0  0  0  0
  -24.3250   66.6550   24.1210 C   0  0  0  0  0  0  0  0  0  0  0  0
  1  2  1  0  0  0  0
  2  3  1  0  0  0  0
  3  4  1  0  0  0  0
  5  6  1  0  0  0  0
  5  4  2  0  0  0  0
  7  8  1  0  0  0  0
  7  6  2  0  0  0  0
  9  7  1  0  0  0  0
 10  9  1  0  0  0  0
 10 12  1  0  0  0  0
 11 10  2  0  0  0  0
 12  5  1  0  0  0  0
 13 12  1  0  0  0  0
 13  2  2  0  0  0  0
M  END
>  <MODEL>
1

>  <REMARK>
 VINA RESULT:      -7.1      0.000      0.000
  0 active torsions:
  status: ('A' for Active; 'I' for Inactive)

>  <TORSDO>
F 0

$$$$
../pdbqt/decoy.vina_out.32.pdbqt
 OpenBabel06052021513D

 13 14  0  0  0  0  0  0  0  0999 V2000
  -29.6020   65.1560   24.2470 C   0  0  0  0  0  0  0  0  0  0  0  0
  -28.2110   65.1990   24.8090 C   0  0  0  0  0  0  0  0  0  0  0  0
  -27.9000   64.5550   26.0090 C   0  0  0  0  0  0  0  0  0  0  0  0
  -26.6030   64.6100   26.5100 C   0  0  0  0  0  0  0  0  0  0  0  0
  -25.6190   65.3090   25.8070 C   0  0  0  0  0  0  0  0  0  0  0  0
  -24.3550   65.3550   26.3060 N   0  0  0  0  0  0  0  0  0  0  0  0
  -23.3670   66.0200   25.6620 C   0  0  0  0  0  0  0  0  0  0  0  0
  -21.7530   66.0530   26.3410 Cl  0  0  0  0  0  0  0  0  0  0  0  0
  -23.6390   66.6730   24.4640 C   0  0  0  0  0  0  0  0  0  0  0  0
  -24.9370   66.6270   23.9500 C   0  0  0  0  0  0  0  0  0  0  0  0
  -25.1810   67.2200   22.8630 O   0  0  0  0  0  0  0  0  0  0  0  0
  -25.9230   65.9460   24.6220 N   0  0  0  0  0  0  0  0  0  0  0  0
  -27.2020   65.8930   24.1260 C   0  0  0  0  0  0  0  0  0  0  0  0
  1  2  1  0  0  0  0
  2  3  1  0  0  0  0
  3  4  1  0  0  0  0
  5  6  1  0  0  0  0
  5  4  2  0  0  0  0
  7  6  2  0  0  0  0
  7  8  1  0  0  0  0
  9  7  1  0  0  0  0
 10  9  1  0  0  0  0
 10 12  1  0  0  0  0
 11 10  2  0  0  0  0
 12  5  1  0  0  0  0
 13 12  1  0  0  0  0
 13  2  2  0  0  0  0
M  END
>  <REMARK>
 VINA RESULT:      -7.0      2.687      4.362
  0 active torsions:
  status: ('A' for Active; 'I' for Inactive)

>  <TORSDO>
F 0

$$$$
../pdbqt/decoy.vina_out.32.pdbqt
 OpenBabel06052021513D

 13 14  0  0  0  0  0  0  0  0999 V2000
  -25.9990   67.5380   23.2510 C   0  0  0  0  0  0  0  0  0  0  0  0
  -25.7360   66.4920   24.2950 C   0  0  0  0  0  0  0  0  0  0  0  0
  -24.4320   66.1830   24.6910 C   0  0  0  0  0  0  0  0  0  0  0  0
  -24.2140   65.2100   25.6610 C   0  0  0  0  0  0  0  0  0  0  0  0
  -25.3030   64.5460   26.2330 C   0  0  0  0  0  0  0  0  0  0  0  0
  -25.0770   63.5970   27.1790 N   0  0  0  0  0  0  0  0  0  0  0  0
  -26.0990   62.9270   27.7610 C   0  0  0  0  0  0  0  0  0  0  0  0
  -25.7620   61.7110   28.9770 Cl  0  0  0  0  0  0  0  0  0  0  0  0
  -27.4110   63.2070   27.3930 C   0  0  0  0  0  0  0  0  0  0  0  0
  -27.6440   64.1820   26.4210 C   0  0  0  0  0  0  0  0  0  0  0  0
  -28.8350   64.4350   26.0880 O   0  0  0  0  0  0  0  0  0  0  0  0
  -26.5910   64.8490   25.8430 N   0  0  0  0  0  0  0  0  0  0  0  0
  -26.8080   65.8100   24.8870 C   0  0  0  0  0  0  0  0  0  0  0  0
  1  2  1  0  0  0  0
  2  3  1  0  0  0  0
  2 13  2  0  0  0  0
  3  4  1  0  0  0  0
  4  5  2  0  0  0  0
  5  6  1  0  0  0  0
  6  7  2  0  0  0  0
  7  8  1  0  0  0  0
  9  7  1  0  0  0  0
 10  9  1  0  0  0  0
 11 10  2  0  0  0  0
 12  5  1  0  0  0  0
 12 10  1  0  0  0  0
 13 12  1  0  0  0  0
M  END
>  <REMARK>
 VINA RESULT:      -6.8      3.089      4.043
  0 active torsions:
  status: ('A' for Active; 'I' for Inactive)

>  <TORSDO>
F 0

$$$$
../pdbqt/decoy.vina_out.32.pdbqt
 OpenBabel06052021513D

 13 14  0  0  0  0  0  0  0  0999 V2000
  -25.9990   67.4770   22.9180 C   0  0  0  0  0  0  0  0  0  0  0  0
  -26.5250   66.5120   23.9400 C   0  0  0  0  0  0  0  0  0  0  0  0
  -27.8660   66.1190   23.9340 C   0  0  0  0  0  0  0  0  0  0  0  0
  -28.3310   65.2240   24.8920 C   0  0  0  0  0  0  0  0  0  0  0  0
  -27.4510   64.7220   25.8550 C   0  0  0  0  0  0  0  0  0  0  0  0
  -27.9170   63.8470   26.7850 N   0  0  0  0  0  0  0  0  0  0  0  0
  -27.1030   63.3340   27.7380 C   0  0  0  0  0  0  0  0  0  0  0  0
  -27.7450   62.2100   28.9180 Cl  0  0  0  0  0  0  0  0  0  0  0  0
  -25.7620   63.7030   27.7750 C   0  0  0  0  0  0  0  0  0  0  0  0
  -25.2830   64.6010   26.8210 C   0  0  0  0  0  0  0  0  0  0  0  0
  -24.0650   64.9330   26.8560 O   0  0  0  0  0  0  0  0  0  0  0  0
  -26.1270   65.1090   25.8620 N   0  0  0  0  0  0  0  0  0  0  0  0
  -25.6670   65.9920   24.9180 C   0  0  0  0  0  0  0  0  0  0  0  0
  1  2  1  0  0  0  0
  2 13  2  0  0  0  0
  3  2  1  0  0  0  0
  3  4  1  0  0  0  0
  4  5  2  0  0  0  0
  5 12  1  0  0  0  0
  5  6  1  0  0  0  0
  6  7  2  0  0  0  0
  7  9  1  0  0  0  0
  7  8  1  0  0  0  0
 10 11  2  0  0  0  0
 10  9  1  0  0  0  0
 12 10  1  0  0  0  0
 13 12  1  0  0  0  0
M  END
>  <REMARK>
 VINA RESULT:      -6.5      2.792      4.080
  0 active torsions:
  status: ('A' for Active; 'I' for Inactive)

>  <TORSDO>
F 0

$$$$
../pdbqt/decoy.vina_out.32.pdbqt
 OpenBabel06052021513D

 13 14  0  0  0  0  0  0  0  0999 V2000
  -29.5930   65.1030   24.2820 C   0  0  0  0  0  0  0  0  0  0  0  0
  -28.1670   65.5670   24.2120 C   0  0  0  0  0  0  0  0  0  0  0  0
  -27.7240   66.3720   23.1590 C   0  0  0  0  0  0  0  0  0  0  0  0
  -26.3980   66.7900   23.1150 C   0  0  0  0  0  0  0  0  0  0  0  0
  -25.5160   66.4000   24.1270 C   0  0  0  0  0  0  0  0  0  0  0  0
  -24.2230   66.8150   24.0730 N   0  0  0  0  0  0  0  0  0  0  0  0
  -23.3310   66.4640   25.0300 C   0  0  0  0  0  0  0  0  0  0  0  0
  -21.6740   67.0210   24.9210 Cl  0  0  0  0  0  0  0  0  0  0  0  0
  -23.7360   65.6630   26.0940 C   0  0  0  0  0  0  0  0  0  0  0  0
  -25.0640   65.2370   26.1490 C   0  0  0  0  0  0  0  0  0  0  0  0
  -25.4280   64.5110   27.1160 O   0  0  0  0  0  0  0  0  0  0  0  0
  -25.9510   65.6060   25.1670 N   0  0  0  0  0  0  0  0  0  0  0  0
  -27.2600   65.1930   25.2120 C   0  0  0  0  0  0  0  0  0  0  0  0
  2  1  1  0  0  0  0
  2 13  2  0  0  0  0
  3  2  1  0  0  0  0
  4  3  1  0  0  0  0
  4  5  2  0  0  0  0
  5 12  1  0  0  0  0
  6  5  1  0  0  0  0
  6  7  2  0  0  0  0
  7  9  1  0  0  0  0
  8  7  1  0  0  0  0
  9 10  1  0  0  0  0
 10 11  2  0  0  0  0
 12 13  1  0  0  0  0
 12 10  1  0  0  0  0
M  END
>  <REMARK>
 VINA RESULT:      -6.5      2.983      4.994
  0 active torsions:
  status: ('A' for Active; 'I' for Inactive)

>  <TORSDO>
F 0

$$$$
../pdbqt/decoy.vina_out.32.pdbqt
 OpenBabel06052021513D

 13 14  0  0  0  0  0  0  0  0999 V2000
  -26.4860   61.9890   29.0610 C   0  0  0  0  0  0  0  0  0  0  0  0
  -26.6260   63.0010   27.9610 C   0  0  0  0  0  0  0  0  0  0  0  0
  -27.8830   63.3540   27.4640 C   0  0  0  0  0  0  0  0  0  0  0  0
  -27.9870   64.2940   26.4440 C   0  0  0  0  0  0  0  0  0  0  0  0
  -26.8310   64.8810   25.9230 C   0  0  0  0  0  0  0  0  0  0  0  0
  -26.9460   65.7990   24.9270 N   0  0  0  0  0  0  0  0  0  0  0  0
  -25.8550   66.3940   24.3900 C   0  0  0  0  0  0  0  0  0  0  0  0
  -26.0490   67.5720   23.1080 Cl  0  0  0  0  0  0  0  0  0  0  0  0
  -24.5860   66.0690   24.8590 C   0  0  0  0  0  0  0  0  0  0  0  0
  -24.4670   65.1260   25.8820 C   0  0  0  0  0  0  0  0  0  0  0  0
  -23.3150   64.8330   26.3060 O   0  0  0  0  0  0  0  0  0  0  0  0
  -25.5880   64.5350   26.4120 N   0  0  0  0  0  0  0  0  0  0  0  0
  -25.4840   63.6070   27.4190 C   0  0  0  0  0  0  0  0  0  0  0  0
  2  1  1  0  0  0  0
  3  2  1  0  0  0  0
  4  3  1  0  0  0  0
  5 12  1  0  0  0  0
  5  4  2  0  0  0  0
  6  5  1  0  0  0  0
  7  9  1  0  0  0  0
  7  6  2  0  0  0  0
  8  7  1  0  0  0  0
  9 10  1  0  0  0  0
 10 11  2  0  0  0  0
 10 12  1  0  0  0  0
 12 13  1  0  0  0  0
 13  2  2  0  0  0  0
M  END
>  <REMARK>
 VINA RESULT:      -6.5      2.977      4.263
  0 active torsions:
  status: ('A' for Active; 'I' for Inactive)

>  <TORSDO>
F 0

$$$$
../pdbqt/decoy.vina_out.32.pdbqt
 OpenBabel06052021513D

 13 14  0  0  0  0  0  0  0  0999 V2000
  -28.9210   66.2320   24.0790 C   0  0  0  0  0  0  0  0  0  0  0  0
  -27.6560   65.7860   24.7510 C   0  0  0  0  0  0  0  0  0  0  0  0
  -26.4190   66.3230   24.3850 C   0  0  0  0  0  0  0  0  0  0  0  0
  -25.2590   65.8940   25.0220 C   0  0  0  0  0  0  0  0  0  0  0  0
  -25.3400   64.9250   26.0260 C   0  0  0  0  0  0  0  0  0  0  0  0
  -24.2000   64.5140   26.6420 N   0  0  0  0  0  0  0  0  0  0  0  0
  -24.2270   63.5780   27.6200 C   0  0  0  0  0  0  0  0  0  0  0  0
  -22.7340   63.0770   28.3870 Cl  0  0  0  0  0  0  0  0  0  0  0  0
  -25.4400   63.0200   28.0120 C   0  0  0  0  0  0  0  0  0  0  0  0
  -26.6120   63.4420   27.3800 C   0  0  0  0  0  0  0  0  0  0  0  0
  -27.7110   62.9350   27.7380 O   0  0  0  0  0  0  0  0  0  0  0  0
  -26.5600   64.3930   26.3900 N   0  0  0  0  0  0  0  0  0  0  0  0
  -27.7050   64.8160   25.7620 C   0  0  0  0  0  0  0  0  0  0  0  0
  1  2  1  0  0  0  0
  2 13  2  0  0  0  0
  3  2  1  0  0  0  0
  3  4  1  0  0  0  0
  4  5  2  0  0  0  0
  5 12  1  0  0  0  0
  5  6  1  0  0  0  0
  6  7  2  0  0  0  0
  7  9  1  0  0  0  0
  7  8  1  0  0  0  0
 10 11  2  0  0  0  0
 10  9  1  0  0  0  0
 12 10  1  0  0  0  0
 13 12  1  0  0  0  0
M  END
>  <REMARK>
 VINA RESULT:      -6.2      3.594      5.181
  0 active torsions:
  status: ('A' for Active; 'I' for Inactive)

>  <TORSDO>
F 0

$$$$
../pdbqt/decoy.vina_out.32.pdbqt
 OpenBabel06052021513D

 13 14  0  0  0  0  0  0  0  0999 V2000
  -22.1680   64.6650   27.4750 C   0  0  0  0  0  0  0  0  0  0  0  0
  -23.4190   64.9830   26.7090 C   0  0  0  0  0  0  0  0  0  0  0  0
  -23.3960   65.8700   25.6300 C   0  0  0  0  0  0  0  0  0  0  0  0
  -24.5690   66.1490   24.9360 C   0  0  0  0  0  0  0  0  0  0  0  0
  -25.7650   65.5380   25.3240 C   0  0  0  0  0  0  0  0  0  0  0  0
  -26.9040   65.8190   24.6380 N   0  0  0  0  0  0  0  0  0  0  0  0
  -28.0870   65.2520   24.9760 C   0  0  0  0  0  0  0  0  0  0  0  0
  -29.5300   65.6410   24.0640 Cl  0  0  0  0  0  0  0  0  0  0  0  0
  -28.1480   64.3630   26.0450 C   0  0  0  0  0  0  0  0  0  0  0  0
  -26.9790   64.0750   26.7500 C   0  0  0  0  0  0  0  0  0  0  0  0
  -27.0380   63.2670   27.7190 O   0  0  0  0  0  0  0  0  0  0  0  0
  -25.7900   64.6620   26.3890 N   0  0  0  0  0  0  0  0  0  0  0  0
  -24.6330   64.3850   27.0750 C   0  0  0  0  0  0  0  0  0  0  0  0
  2 13  2  0  0  0  0
  2  1  1  0  0  0  0
  3  2  1  0  0  0  0
  4  5  2  0  0  0  0
  4  3  1  0  0  0  0
  5 12  1  0  0  0  0
  6  7  2  0  0  0  0
  6  5  1  0  0  0  0
  7  9  1  0  0  0  0
  8  7  1  0  0  0  0
  9 10  1  0  0  0  0
 10 11  2  0  0  0  0
 12 10  1  0  0  0  0
 12 13  1  0  0  0  0
M  END
>  <REMARK>
 VINA RESULT:      -6.1      2.391      3.080
  0 active torsions:
  status: ('A' for Active; 'I' for Inactive)

>  <TORSDO>
F 0

$$$$
../pdbqt/decoy.vina_out.32.pdbqt
 OpenBabel06052021513D

 13 14  0  0  0  0  0  0  0  0999 V2000
  -21.0980   66.4460   26.2240 C   0  0  0  0  0  0  0  0  0  0  0  0
  -22.5470   66.1800   25.9370 C   0  0  0  0  0  0  0  0  0  0  0  0
  -23.1740   66.7430   24.8220 C   0  0  0  0  0  0  0  0  0  0  0  0
  -24.5180   66.4830   24.5760 C   0  0  0  0  0  0  0  0  0  0  0  0
  -25.2330   65.6570   25.4480 C   0  0  0  0  0  0  0  0  0  0  0  0
  -26.5460   65.4100   25.1970 N   0  0  0  0  0  0  0  0  0  0  0  0
  -27.2810   64.6170   26.0130 C   0  0  0  0  0  0  0  0  0  0  0  0
  -28.9700   64.3240   25.6510 Cl  0  0  0  0  0  0  0  0  0  0  0  0
  -26.6910   64.0390   27.1320 C   0  0  0  0  0  0  0  0  0  0  0  0
  -25.3430   64.2930   27.3910 C   0  0  0  0  0  0  0  0  0  0  0  0
  -24.8100   63.7660   28.4070 O   0  0  0  0  0  0  0  0  0  0  0  0
  -24.6170   65.1000   26.5490 N   0  0  0  0  0  0  0  0  0  0  0  0
  -23.2900   65.3560   26.7930 C   0  0  0  0  0  0  0  0  0  0  0  0
  2  1  1  0  0  0  0
  2 13  2  0  0  0  0
  3  2  1  0  0  0  0
  4  3  1  0  0  0  0
  4  5  2  0  0  0  0
  5 12  1  0  0  0  0
  6  5  1  0  0  0  0
  6  7  2  0  0  0  0
  7  9  1  0  0  0  0
  8  7  1  0  0  0  0
  9 10  1  0  0  0  0
 10 11  2  0  0  0  0
 12 13  1  0  0  0  0
 12 10  1  0  0  0  0
M  END
>  <REMARK>
 VINA RESULT:      -5.9      2.602      3.317
  0 active torsions:
  status: ('A' for Active; 'I' for Inactive)

>  <TORSDO>
F 0

$$$$
