../pdbqt/decoy.vina_out.31.pdbqt
 OpenBabel06052021513D

 15 16  0  0  0  0  0  0  0  0999 V2000
  -25.4710   64.4190   26.2690 C   0  0  0  0  0  0  0  0  0  0  0  0
  -24.4660   63.5140   26.6490 C   0  0  0  0  0  0  0  0  0  0  0  0
  -24.6900   62.6020   27.6850 C   0  0  0  0  0  0  0  0  0  0  0  0
  -25.9180   62.5960   28.3710 C   0  0  0  0  0  0  0  0  0  0  0  0
  -26.9070   63.5180   28.0100 C   0  0  0  0  0  0  0  0  0  0  0  0
  -26.6830   64.4290   26.9740 C   0  0  0  0  0  0  0  0  0  0  0  0
  -25.2550   65.4090   25.1950 C   0  0  0  0  0  0  0  0  0  0  0  0
  -26.2010   65.7780   24.3190 C   0  0  0  0  0  0  0  0  0  0  0  0
  -26.0460   66.8050   23.3170 C   0  0  0  0  0  0  0  0  0  0  0  0
  -27.6310   65.3330   24.2780 C   0  0  0  0  0  0  0  0  0  0  0  0
  -24.9750   67.4090   23.0470 O   0  0  0  0  0  0  0  0  0  0  0  0
  -27.2410   67.0570   22.6830 O   0  0  0  0  0  0  0  0  0  0  0  0
  -28.2860   66.2490   23.2160 C   0  0  0  0  0  0  0  0  0  0  0  0
  -26.1930   61.7000   29.4150 O   0  0  0  0  0  0  0  0  0  0  0  0
  -26.5380   62.0920   30.7410 C   0  0  0  0  0  0  0  0  0  0  0  0
  1  2  2  0  0  0  0
  1  6  1  0  0  0  0
  2  3  1  0  0  0  0
  3  4  2  0  0  0  0
  4 14  1  0  0  0  0
  5  4  1  0  0  0  0
  6  5  2  0  0  0  0
  7  1  1  0  0  0  0
  8  7  2  0  0  0  0
  9  8  1  0  0  0  0
 10  8  1  0  0  0  0
 11  9  2  0  0  0  0
 12 13  1  0  0  0  0
 12  9  1  0  0  0  0
 13 10  2  0  0  0  0
 14 15  1  0  0  0  0
M  END
>  <MODEL>
1

>  <REMARK>
 VINA RESULT:      -7.6      0.000      0.000
  2 active torsions:
  status: ('A' for Active; 'I' for Inactive)
    1  A    between atoms: C1_1  and  C6_8 
    2  A    between atoms: C9_11  and  O3_12 

>  <TORSDO>
F 2

$$$$
../pdbqt/decoy.vina_out.31.pdbqt
 OpenBabel06052021513D

 15 16  0  0  0  0  0  0  0  0999 V2000
  -24.8490   65.3300   25.8240 C   0  0  0  0  0  0  0  0  0  0  0  0
  -25.6990   64.4510   26.5160 C   0  0  0  0  0  0  0  0  0  0  0  0
  -25.2800   63.8510   27.7060 C   0  0  0  0  0  0  0  0  0  0  0  0
  -23.9920   64.1060   28.2150 C   0  0  0  0  0  0  0  0  0  0  0  0
  -23.1370   64.9600   27.5090 C   0  0  0  0  0  0  0  0  0  0  0  0
  -23.5570   65.5600   26.3180 C   0  0  0  0  0  0  0  0  0  0  0  0
  -25.2550   65.9590   24.5520 C   0  0  0  0  0  0  0  0  0  0  0  0
  -26.5170   65.9770   24.0980 C   0  0  0  0  0  0  0  0  0  0  0  0
  -26.9580   66.6590   22.9050 C   0  0  0  0  0  0  0  0  0  0  0  0
  -27.7400   65.4420   24.7790 C   0  0  0  0  0  0  0  0  0  0  0  0
  -26.2090   67.2260   22.0670 O   0  0  0  0  0  0  0  0  0  0  0  0
  -28.3290   66.6210   22.7960 O   0  0  0  0  0  0  0  0  0  0  0  0
  -28.9140   65.9430   23.9030 C   0  0  0  0  0  0  0  0  0  0  0  0
  -23.5260   63.5310   29.4060 O   0  0  0  0  0  0  0  0  0  0  0  0
  -22.1490   63.3680   29.7340 C   0  0  0  0  0  0  0  0  0  0  0  0
  1  6  2  0  0  0  0
  1  2  1  0  0  0  0
  2  3  2  0  0  0  0
  3  4  1  0  0  0  0
  4 14  1  0  0  0  0
  5  4  2  0  0  0  0
  6  5  1  0  0  0  0
  7  1  1  0  0  0  0
  8  7  2  0  0  0  0
  8 10  1  0  0  0  0
  9  8  1  0  0  0  0
 11  9  2  0  0  0  0
 12  9  1  0  0  0  0
 12 13  1  0  0  0  0
 13 10  2  0  0  0  0
 14 15  1  0  0  0  0
M  END
>  <REMARK>
 VINA RESULT:      -7.2      1.675      2.298
  2 active torsions:
  status: ('A' for Active; 'I' for Inactive)
    1  A    between atoms: C1_1  and  C6_8 
    2  A    between atoms: C9_11  and  O3_12 

>  <TORSDO>
F 2

$$$$
../pdbqt/decoy.vina_out.31.pdbqt
 OpenBabel06052021513D

 15 16  0  0  0  0  0  0  0  0999 V2000
  -24.5090   66.2640   24.7790 C   0  0  0  0  0  0  0  0  0  0  0  0
  -24.8350   67.0550   23.6640 C   0  0  0  0  0  0  0  0  0  0  0  0
  -26.1660   67.1840   23.2540 C   0  0  0  0  0  0  0  0  0  0  0  0
  -27.1900   66.5070   23.9430 C   0  0  0  0  0  0  0  0  0  0  0  0
  -26.8580   65.6980   25.0360 C   0  0  0  0  0  0  0  0  0  0  0  0
  -25.5280   65.5690   25.4450 C   0  0  0  0  0  0  0  0  0  0  0  0
  -23.1110   66.0900   25.2200 C   0  0  0  0  0  0  0  0  0  0  0  0
  -22.4030   64.9670   25.0280 C   0  0  0  0  0  0  0  0  0  0  0  0
  -21.0110   64.7970   25.3690 C   0  0  0  0  0  0  0  0  0  0  0  0
  -22.8350   63.7270   24.3060 C   0  0  0  0  0  0  0  0  0  0  0  0
  -20.3040   65.6290   25.9970 O   0  0  0  0  0  0  0  0  0  0  0  0
  -20.5350   63.5920   24.9060 O   0  0  0  0  0  0  0  0  0  0  0  0
  -21.5470   62.8750   24.2060 C   0  0  0  0  0  0  0  0  0  0  0  0
  -28.5390   66.6070   23.5730 O   0  0  0  0  0  0  0  0  0  0  0  0
  -29.5570   65.7050   23.9970 C   0  0  0  0  0  0  0  0  0  0  0  0
  1  7  1  0  0  0  0
  1  6  2  0  0  0  0
  2  1  1  0  0  0  0
  3  2  2  0  0  0  0
  3  4  1  0  0  0  0
  4  5  2  0  0  0  0
  5  6  1  0  0  0  0
  8  7  2  0  0  0  0
  8  9  1  0  0  0  0
  9 11  2  0  0  0  0
 10  8  1  0  0  0  0
 12  9  1  0  0  0  0
 13 10  2  0  0  0  0
 13 12  1  0  0  0  0
 14  4  1  0  0  0  0
 14 15  1  0  0  0  0
M  END
>  <REMARK>
 VINA RESULT:      -7.2      3.428      5.719
  2 active torsions:
  status: ('A' for Active; 'I' for Inactive)
    1  A    between atoms: C1_1  and  C6_8 
    2  A    between atoms: C9_11  and  O3_12 

>  <TORSDO>
F 2

$$$$
../pdbqt/decoy.vina_out.31.pdbqt
 OpenBabel06052021513D

 15 16  0  0  0  0  0  0  0  0999 V2000
  -24.0820   65.3400   25.8850 C   0  0  0  0  0  0  0  0  0  0  0  0
  -25.3760   64.9350   26.2540 C   0  0  0  0  0  0  0  0  0  0  0  0
  -26.4860   65.3610   25.5200 C   0  0  0  0  0  0  0  0  0  0  0  0
  -26.3210   66.2170   24.4150 C   0  0  0  0  0  0  0  0  0  0  0  0
  -25.0340   66.6420   24.0670 C   0  0  0  0  0  0  0  0  0  0  0  0
  -23.9230   66.2150   24.8010 C   0  0  0  0  0  0  0  0  0  0  0  0
  -22.8930   64.9250   26.6550 C   0  0  0  0  0  0  0  0  0  0  0  0
  -22.1320   63.8670   26.3400 C   0  0  0  0  0  0  0  0  0  0  0  0
  -20.9150   63.4900   27.0200 C   0  0  0  0  0  0  0  0  0  0  0  0
  -22.2790   62.9550   25.1610 C   0  0  0  0  0  0  0  0  0  0  0  0
  -20.4670   64.0250   28.0680 O   0  0  0  0  0  0  0  0  0  0  0  0
  -20.2850   62.4570   26.3640 O   0  0  0  0  0  0  0  0  0  0  0  0
  -21.0030   62.0780   25.1940 C   0  0  0  0  0  0  0  0  0  0  0  0
  -27.4030   66.6700   23.6450 O   0  0  0  0  0  0  0  0  0  0  0  0
  -28.7390   66.1960   23.7780 C   0  0  0  0  0  0  0  0  0  0  0  0
  1  2  1  0  0  0  0
  1  7  1  0  0  0  0
  3  2  2  0  0  0  0
  4  3  1  0  0  0  0
  5  4  2  0  0  0  0
  5  6  1  0  0  0  0
  6  1  2  0  0  0  0
  8  7  2  0  0  0  0
  8  9  1  0  0  0  0
  9 11  2  0  0  0  0
 10 13  2  0  0  0  0
 10  8  1  0  0  0  0
 12  9  1  0  0  0  0
 13 12  1  0  0  0  0
 14 15  1  0  0  0  0
 14  4  1  0  0  0  0
M  END
>  <REMARK>
 VINA RESULT:      -7.0      3.065      6.094
  2 active torsions:
  status: ('A' for Active; 'I' for Inactive)
    1  A    between atoms: C1_1  and  C6_8 
    2  A    between atoms: C9_11  and  O3_12 

>  <TORSDO>
F 2

$$$$
../pdbqt/decoy.vina_out.31.pdbqt
 OpenBabel06052021513D

 15 16  0  0  0  0  0  0  0  0999 V2000
  -25.1960   65.1260   26.2550 C   0  0  0  0  0  0  0  0  0  0  0  0
  -25.3870   65.7880   25.0310 C   0  0  0  0  0  0  0  0  0  0  0  0
  -24.3110   66.4020   24.3840 C   0  0  0  0  0  0  0  0  0  0  0  0
  -23.0280   66.3800   24.9620 C   0  0  0  0  0  0  0  0  0  0  0  0
  -22.8470   65.7450   26.1960 C   0  0  0  0  0  0  0  0  0  0  0  0
  -23.9230   65.1300   26.8430 C   0  0  0  0  0  0  0  0  0  0  0  0
  -26.3170   64.4890   26.9740 C   0  0  0  0  0  0  0  0  0  0  0  0
  -26.2290   63.3030   27.5940 C   0  0  0  0  0  0  0  0  0  0  0  0
  -27.2790   62.6980   28.3780 C   0  0  0  0  0  0  0  0  0  0  0  0
  -25.0150   62.4360   27.7380 C   0  0  0  0  0  0  0  0  0  0  0  0
  -28.4540   63.1360   28.4890 O   0  0  0  0  0  0  0  0  0  0  0  0
  -26.8280   61.5630   29.0110 O   0  0  0  0  0  0  0  0  0  0  0  0
  -25.4520   61.3290   28.7280 C   0  0  0  0  0  0  0  0  0  0  0  0
  -21.9170   66.9790   24.3510 O   0  0  0  0  0  0  0  0  0  0  0  0
  -20.6920   67.2680   25.0190 C   0  0  0  0  0  0  0  0  0  0  0  0
  1  6  1  0  0  0  0
  1  7  1  0  0  0  0
  2  1  2  0  0  0  0
  3  4  2  0  0  0  0
  3  2  1  0  0  0  0
  4  5  1  0  0  0  0
  5  6  2  0  0  0  0
  7  8  2  0  0  0  0
  8 10  1  0  0  0  0
  8  9  1  0  0  0  0
  9 11  2  0  0  0  0
  9 12  1  0  0  0  0
 10 13  2  0  0  0  0
 13 12  1  0  0  0  0
 14  4  1  0  0  0  0
 14 15  1  0  0  0  0
M  END
>  <REMARK>
 VINA RESULT:      -7.0      2.274      6.075
  2 active torsions:
  status: ('A' for Active; 'I' for Inactive)
    1  A    between atoms: C1_1  and  C6_8 
    2  A    between atoms: C9_11  and  O3_12 

>  <TORSDO>
F 2

$$$$
../pdbqt/decoy.vina_out.31.pdbqt
 OpenBabel06052021513D

 15 16  0  0  0  0  0  0  0  0999 V2000
  -24.2070   65.9170   25.4330 C   0  0  0  0  0  0  0  0  0  0  0  0
  -24.3660   65.0820   26.5510 C   0  0  0  0  0  0  0  0  0  0  0  0
  -25.6130   64.5220   26.8440 C   0  0  0  0  0  0  0  0  0  0  0  0
  -26.7260   64.8050   26.0320 C   0  0  0  0  0  0  0  0  0  0  0  0
  -26.5710   65.6600   24.9350 C   0  0  0  0  0  0  0  0  0  0  0  0
  -25.3240   66.2200   24.6420 C   0  0  0  0  0  0  0  0  0  0  0  0
  -22.9080   66.5420   25.1120 C   0  0  0  0  0  0  0  0  0  0  0  0
  -21.8210   65.8530   24.7360 C   0  0  0  0  0  0  0  0  0  0  0  0
  -20.5670   66.4410   24.3320 C   0  0  0  0  0  0  0  0  0  0  0  0
  -21.7090   64.3760   24.5100 C   0  0  0  0  0  0  0  0  0  0  0  0
  -20.2800   67.6660   24.3900 O   0  0  0  0  0  0  0  0  0  0  0  0
  -19.7040   65.4810   23.8550 O   0  0  0  0  0  0  0  0  0  0  0  0
  -20.3090   64.1910   23.8770 C   0  0  0  0  0  0  0  0  0  0  0  0
  -27.9970   64.2660   26.2820 O   0  0  0  0  0  0  0  0  0  0  0  0
  -28.6500   64.3010   27.5470 C   0  0  0  0  0  0  0  0  0  0  0  0
  1  2  2  0  0  0  0
  2  3  1  0  0  0  0
  4 14  1  0  0  0  0
  4  3  2  0  0  0  0
  5  4  1  0  0  0  0
  6  5  2  0  0  0  0
  6  1  1  0  0  0  0
  7  1  1  0  0  0  0
  8  7  2  0  0  0  0
  9 11  2  0  0  0  0
  9  8  1  0  0  0  0
 10  8  1  0  0  0  0
 12 13  1  0  0  0  0
 12  9  1  0  0  0  0
 13 10  2  0  0  0  0
 14 15  1  0  0  0  0
M  END
>  <REMARK>
 VINA RESULT:      -6.9      3.334      4.714
  2 active torsions:
  status: ('A' for Active; 'I' for Inactive)
    1  A    between atoms: C1_1  and  C6_8 
    2  A    between atoms: C9_11  and  O3_12 

>  <TORSDO>
F 2

$$$$
../pdbqt/decoy.vina_out.31.pdbqt
 OpenBabel06052021513D

 15 16  0  0  0  0  0  0  0  0999 V2000
  -24.2880   65.0860   25.6460 C   0  0  0  0  0  0  0  0  0  0  0  0
  -23.6140   66.2810   25.3430 C   0  0  0  0  0  0  0  0  0  0  0  0
  -22.2940   66.2520   24.8840 C   0  0  0  0  0  0  0  0  0  0  0  0
  -21.6190   65.0250   24.7390 C   0  0  0  0  0  0  0  0  0  0  0  0
  -22.2830   63.8380   25.0690 C   0  0  0  0  0  0  0  0  0  0  0  0
  -23.6040   63.8680   25.5280 C   0  0  0  0  0  0  0  0  0  0  0  0
  -25.6730   65.0860   26.1560 C   0  0  0  0  0  0  0  0  0  0  0  0
  -26.7400   65.4200   25.4150 C   0  0  0  0  0  0  0  0  0  0  0  0
  -28.1120   65.3450   25.8580 C   0  0  0  0  0  0  0  0  0  0  0  0
  -26.7650   65.7870   23.9620 C   0  0  0  0  0  0  0  0  0  0  0  0
  -28.4890   65.0750   27.0280 O   0  0  0  0  0  0  0  0  0  0  0  0
  -28.9780   65.6020   24.8210 O   0  0  0  0  0  0  0  0  0  0  0  0
  -28.2710   65.8430   23.6080 C   0  0  0  0  0  0  0  0  0  0  0  0
  -20.2960   64.9430   24.2800 O   0  0  0  0  0  0  0  0  0  0  0  0
  -19.5660   66.0370   23.7340 C   0  0  0  0  0  0  0  0  0  0  0  0
  1  7  1  0  0  0  0
  2  1  2  0  0  0  0
  3  2  1  0  0  0  0
  4  3  2  0  0  0  0
  4  5  1  0  0  0  0
  5  6  2  0  0  0  0
  6  1  1  0  0  0  0
  8  9  1  0  0  0  0
  8  7  2  0  0  0  0
  9 11  2  0  0  0  0
 10  8  1  0  0  0  0
 12  9  1  0  0  0  0
 13 10  2  0  0  0  0
 13 12  1  0  0  0  0
 14  4  1  0  0  0  0
 15 14  1  0  0  0  0
M  END
>  <REMARK>
 VINA RESULT:      -6.9      3.049      4.927
  2 active torsions:
  status: ('A' for Active; 'I' for Inactive)
    1  A    between atoms: C1_1  and  C6_8 
    2  A    between atoms: C9_11  and  O3_12 

>  <TORSDO>
F 2

$$$$
../pdbqt/decoy.vina_out.31.pdbqt
 OpenBabel06052021513D

 15 16  0  0  0  0  0  0  0  0999 V2000
  -23.6780   63.2560   27.0520 C   0  0  0  0  0  0  0  0  0  0  0  0
  -24.3020   64.3540   26.4380 C   0  0  0  0  0  0  0  0  0  0  0  0
  -25.6840   64.5350   26.5490 C   0  0  0  0  0  0  0  0  0  0  0  0
  -26.4670   63.6060   27.2610 C   0  0  0  0  0  0  0  0  0  0  0  0
  -25.8450   62.4970   27.8470 C   0  0  0  0  0  0  0  0  0  0  0  0
  -24.4640   62.3170   27.7360 C   0  0  0  0  0  0  0  0  0  0  0  0
  -22.2240   63.0250   26.9320 C   0  0  0  0  0  0  0  0  0  0  0  0
  -21.6110   62.7190   25.7790 C   0  0  0  0  0  0  0  0  0  0  0  0
  -20.1840   62.5760   25.6140 C   0  0  0  0  0  0  0  0  0  0  0  0
  -22.2260   62.6090   24.4180 C   0  0  0  0  0  0  0  0  0  0  0  0
  -19.3330   62.5990   26.5420 O   0  0  0  0  0  0  0  0  0  0  0  0
  -19.8570   62.4150   24.2870 O   0  0  0  0  0  0  0  0  0  0  0  0
  -21.0170   62.4620   23.4620 C   0  0  0  0  0  0  0  0  0  0  0  0
  -27.8550   63.7440   27.4030 O   0  0  0  0  0  0  0  0  0  0  0  0
  -28.6160   64.8180   26.8590 C   0  0  0  0  0  0  0  0  0  0  0  0
  1  6  2  0  0  0  0
  2  3  2  0  0  0  0
  2  1  1  0  0  0  0
  3  4  1  0  0  0  0
  4 14  1  0  0  0  0
  4  5  2  0  0  0  0
  6  5  1  0  0  0  0
  7  1  1  0  0  0  0
  8  7  2  0  0  0  0
  9  8  1  0  0  0  0
  9 11  2  0  0  0  0
 10  8  1  0  0  0  0
 12  9  1  0  0  0  0
 13 12  1  0  0  0  0
 13 10  2  0  0  0  0
 15 14  1  0  0  0  0
M  END
>  <REMARK>
 VINA RESULT:      -6.8      3.613      5.305
  2 active torsions:
  status: ('A' for Active; 'I' for Inactive)
    1  A    between atoms: C1_1  and  C6_8 
    2  A    between atoms: C9_11  and  O3_12 

>  <TORSDO>
F 2

$$$$
../pdbqt/decoy.vina_out.31.pdbqt
 OpenBabel06052021513D

 15 16  0  0  0  0  0  0  0  0999 V2000
  -24.1840   65.6940   24.5380 C   0  0  0  0  0  0  0  0  0  0  0  0
  -23.7260   64.3750   24.3820 C   0  0  0  0  0  0  0  0  0  0  0  0
  -22.4230   64.0300   24.7540 C   0  0  0  0  0  0  0  0  0  0  0  0
  -21.5500   65.0060   25.2700 C   0  0  0  0  0  0  0  0  0  0  0  0
  -22.0000   66.3260   25.3960 C   0  0  0  0  0  0  0  0  0  0  0  0
  -23.3030   66.6700   25.0250 C   0  0  0  0  0  0  0  0  0  0  0  0
  -25.5460   66.0930   24.1310 C   0  0  0  0  0  0  0  0  0  0  0  0
  -26.6570   65.7260   24.7860 C   0  0  0  0  0  0  0  0  0  0  0  0
  -27.9920   66.1720   24.4660 C   0  0  0  0  0  0  0  0  0  0  0  0
  -26.7510   64.9200   26.0460 C   0  0  0  0  0  0  0  0  0  0  0  0
  -28.3120   66.8640   23.4640 O   0  0  0  0  0  0  0  0  0  0  0  0
  -28.8930   65.7450   25.4140 O   0  0  0  0  0  0  0  0  0  0  0  0
  -28.2430   65.0110   26.4470 C   0  0  0  0  0  0  0  0  0  0  0  0
  -20.2360   64.7100   25.6590 O   0  0  0  0  0  0  0  0  0  0  0  0
  -19.2800   64.0560   24.8310 C   0  0  0  0  0  0  0  0  0  0  0  0
  1  6  1  0  0  0  0
  2  1  2  0  0  0  0
  2  3  1  0  0  0  0
  3  4  2  0  0  0  0
  4  5  1  0  0  0  0
  4 14  1  0  0  0  0
  6  5  2  0  0  0  0
  7  1  1  0  0  0  0
  7  8  2  0  0  0  0
  8 10  1  0  0  0  0
  9  8  1  0  0  0  0
  9 12  1  0  0  0  0
 10 13  2  0  0  0  0
 11  9  2  0  0  0  0
 12 13  1  0  0  0  0
 15 14  1  0  0  0  0
M  END
>  <REMARK>
 VINA RESULT:      -6.8      2.945      4.614
  2 active torsions:
  status: ('A' for Active; 'I' for Inactive)
    1  A    between atoms: C1_1  and  C6_8 
    2  A    between atoms: C9_11  and  O3_12 

>  <TORSDO>
F 2

$$$$
