../pdbqt/decoy.vina_out.14.pdbqt
 OpenBabel06052021513D

 20 20  0  0  1  0  0  0  0  0999 V2000
  -17.0730   64.3980   21.1790 C   0  0  2  0  0  0  0  0  0  0  0  0
  -18.1330   65.5120   21.1440 C   0  0  0  0  0  0  0  0  0  0  0  0
  -18.1130   66.3470   22.4310 C   0  0  1  0  0  0  0  0  0  0  0  0
  -18.1260   65.4280   23.6710 C   0  0  2  0  0  0  0  0  0  0  0  0
  -17.0710   64.4750   23.6150 O   0  0  0  0  0  0  0  0  0  0  0  0
  -17.2020   63.6110   22.4970 C   0  0  2  0  0  0  0  0  0  0  0  0
  -15.7230   64.9560   21.0670 N   0  0  0  0  0  0  0  0  0  0  0  0
  -14.9950   64.9090   19.9920 C   0  0  0  0  0  0  0  0  0  0  0  0
  -15.4700   64.2750   18.8430 O   0  0  0  0  0  0  0  0  0  0  0  0
  -15.1180   63.3680   18.5600 H   0  0  0  0  0  0  0  0  0  0  0  0
  -13.6270   65.5240   19.9880 C   0  0  0  0  0  0  0  0  0  0  0  0
  -13.7070   66.9040   20.0540 F   0  0  0  0  0  0  0  0  0  0  0  0
  -12.9670   65.1670   18.8280 F   0  0  0  0  0  0  0  0  0  0  0  0
  -12.9140   65.0610   21.0780 F   0  0  0  0  0  0  0  0  0  0  0  0
  -16.1920   62.6400   22.5700 O   0  0  0  0  0  0  0  0  0  0  0  0
  -16.6050   61.7730   22.3130 H   0  0  0  0  0  0  0  0  0  0  0  0
  -16.9670   67.1600   22.4440 O   0  0  0  0  0  0  0  0  0  0  0  0
  -17.1930   67.9850   21.9390 H   0  0  0  0  0  0  0  0  0  0  0  0
  -19.3940   64.8000   23.7900 O   0  0  0  0  0  0  0  0  0  0  0  0
  -20.3290   65.6960   24.3520 C   0  0  0  0  0  0  0  0  0  0  0  0
  1  7  1  1  0  0  0
  1  6  1  0  0  0  0
  2  1  1  0  0  0  0
  2  3  1  0  0  0  0
  3 17  1  6  0  0  0
  3  4  1  0  0  0  0
  4 19  1  6  0  0  0
  5  4  1  0  0  0  0
  6 15  1  1  0  0  0
  6  5  1  0  0  0  0
  8  7  2  0  0  0  0
  9  8  1  0  0  0  0
 10  9  1  0  0  0  0
 11  8  1  0  0  0  0
 11 12  1  0  0  0  0
 11 14  1  0  0  0  0
 13 11  1  0  0  0  0
 16 15  1  0  0  0  0
 18 17  1  0  0  0  0
 19 20  1  0  0  0  0
M  END
>  <MODEL>
1

>  <REMARK>
 VINA RESULT:      -5.5      0.000      0.000
  6 active torsions:
  status: ('A' for Active; 'I' for Inactive)
    1  A    between atoms: O1_2  and  C1_3 
    2  A    between atoms: C1_3  and  C8_17 
    3  A    between atoms: N1_4  and  C2_5 
    4  A    between atoms: C4_7  and  O2_8 
    5  A    between atoms: C5_10  and  O3_11 
    6  A    between atoms: C7_14  and  O5_15 

>  <TORSDO>
F 6

$$$$
../pdbqt/decoy.vina_out.14.pdbqt
 OpenBabel06052021513D

 20 20  0  0  1  0  0  0  0  0999 V2000
  -17.5700   65.3980   21.3260 C   0  0  2  0  0  0  0  0  0  0  0  0
  -16.8250   64.6680   20.1960 C   0  0  0  0  0  0  0  0  0  0  0  0
  -15.4930   64.0840   20.6870 C   0  0  1  0  0  0  0  0  0  0  0  0
  -14.6890   65.1510   21.4600 C   0  0  2  0  0  0  0  0  0  0  0  0
  -15.4640   65.7170   22.5100 O   0  0  0  0  0  0  0  0  0  0  0  0
  -16.6110   66.3880   22.0130 C   0  0  2  0  0  0  0  0  0  0  0  0
  -18.0880   64.4470   22.3120 N   0  0  0  0  0  0  0  0  0  0  0  0
  -19.1790   63.7570   22.1660 C   0  0  0  0  0  0  0  0  0  0  0  0
  -19.9640   63.9090   21.0220 O   0  0  0  0  0  0  0  0  0  0  0  0
  -19.5440   64.0140   20.1060 H   0  0  0  0  0  0  0  0  0  0  0  0
  -19.6100   62.8010   23.2380 C   0  0  0  0  0  0  0  0  0  0  0  0
  -18.5240   62.1160   23.7540 F   0  0  0  0  0  0  0  0  0  0  0  0
  -20.5060   61.8920   22.7110 F   0  0  0  0  0  0  0  0  0  0  0  0
  -20.2240   63.5050   24.2580 F   0  0  0  0  0  0  0  0  0  0  0  0
  -17.2610   67.0070   23.0920 O   0  0  0  0  0  0  0  0  0  0  0  0
  -17.2980   66.3410   23.8290 H   0  0  0  0  0  0  0  0  0  0  0  0
  -15.7440   62.9760   21.5130 O   0  0  0  0  0  0  0  0  0  0  0  0
  -16.5650   63.1830   22.0330 H   0  0  0  0  0  0  0  0  0  0  0  0
  -14.2200   66.1440   20.5600 O   0  0  0  0  0  0  0  0  0  0  0  0
  -13.2190   65.6070   19.7230 C   0  0  0  0  0  0  0  0  0  0  0  0
  1  6  1  0  0  0  0
  1  7  1  1  0  0  0
  2  3  1  0  0  0  0
  2  1  1  0  0  0  0
  3  4  1  0  0  0  0
  3 17  1  1  0  0  0
  4 19  1  6  0  0  0
  4  5  1  0  0  0  0
  6  5  1  0  0  0  0
  6 15  1  1  0  0  0
  8  7  2  0  0  0  0
  8 11  1  0  0  0  0
  9  8  1  0  0  0  0
 10  9  1  0  0  0  0
 11 12  1  0  0  0  0
 11 14  1  0  0  0  0
 13 11  1  0  0  0  0
 15 16  1  0  0  0  0
 17 18  1  0  0  0  0
 20 19  1  0  0  0  0
M  END
>  <REMARK>
 VINA RESULT:      -5.4      3.702      5.529
  6 active torsions:
  status: ('A' for Active; 'I' for Inactive)
    1  A    between atoms: O1_2  and  C1_3 
    2  A    between atoms: C1_3  and  C8_17 
    3  A    between atoms: N1_4  and  C2_5 
    4  A    between atoms: C4_7  and  O2_8 
    5  A    between atoms: C5_10  and  O3_11 
    6  A    between atoms: C7_14  and  O5_15 

>  <TORSDO>
F 6

$$$$
../pdbqt/decoy.vina_out.14.pdbqt
 OpenBabel06052021513D

 20 20  0  0  1  0  0  0  0  0999 V2000
  -22.9660   65.9330   25.8980 C   0  0  2  0  0  0  0  0  0  0  0  0
  -21.8070   66.9200   26.1220 C   0  0  0  0  0  0  0  0  0  0  0  0
  -20.7960   66.8700   24.9690 C   0  0  1  0  0  0  0  0  0  0  0  0
  -20.4010   65.4100   24.6600 C   0  0  2  0  0  0  0  0  0  0  0  0
  -21.5520   64.6080   24.4200 O   0  0  0  0  0  0  0  0  0  0  0  0
  -22.3940   64.5430   25.5600 C   0  0  2  0  0  0  0  0  0  0  0  0
  -23.8370   66.3860   24.8110 N   0  0  0  0  0  0  0  0  0  0  0  0
  -25.1280   66.2380   24.7940 C   0  0  0  0  0  0  0  0  0  0  0  0
  -25.7800   65.5910   25.8440 O   0  0  0  0  0  0  0  0  0  0  0  0
  -25.5190   64.6540   26.1260 H   0  0  0  0  0  0  0  0  0  0  0  0
  -25.9230   66.7510   23.6310 C   0  0  0  0  0  0  0  0  0  0  0  0
  -26.7220   67.8150   24.0100 F   0  0  0  0  0  0  0  0  0  0  0  0
  -26.7270   65.7390   23.1420 F   0  0  0  0  0  0  0  0  0  0  0  0
  -25.0600   67.1670   22.6340 F   0  0  0  0  0  0  0  0  0  0  0  0
  -23.4430   63.6530   25.2830 O   0  0  0  0  0  0  0  0  0  0  0  0
  -24.0890   63.7230   26.0350 H   0  0  0  0  0  0  0  0  0  0  0  0
  -21.3560   67.4710   23.8290 O   0  0  0  0  0  0  0  0  0  0  0  0
  -21.4880   68.4320   24.0450 H   0  0  0  0  0  0  0  0  0  0  0  0
  -19.6110   64.8920   25.7200 O   0  0  0  0  0  0  0  0  0  0  0  0
  -18.3510   65.5260   25.7400 C   0  0  0  0  0  0  0  0  0  0  0  0
  1  7  1  6  0  0  0
  1  2  1  0  0  0  0
  3 17  1  6  0  0  0
  3  2  1  0  0  0  0
  4  3  1  0  0  0  0
  4 19  1  1  0  0  0
  5  4  1  0  0  0  0
  5  6  1  0  0  0  0
  6 15  1  6  0  0  0
  6  1  1  0  0  0  0
  8  7  2  0  0  0  0
  8  9  1  0  0  0  0
  9 10  1  0  0  0  0
 11 12  1  0  0  0  0
 11  8  1  0  0  0  0
 13 11  1  0  0  0  0
 14 11  1  0  0  0  0
 15 16  1  0  0  0  0
 17 18  1  0  0  0  0
 19 20  1  0  0  0  0
M  END
>  <REMARK>
 VINA RESULT:      -5.3      7.015      8.913
  6 active torsions:
  status: ('A' for Active; 'I' for Inactive)
    1  A    between atoms: O1_2  and  C1_3 
    2  A    between atoms: C1_3  and  C8_17 
    3  A    between atoms: N1_4  and  C2_5 
    4  A    between atoms: C4_7  and  O2_8 
    5  A    between atoms: C5_10  and  O3_11 
    6  A    between atoms: C7_14  and  O5_15 

>  <TORSDO>
F 6

$$$$
../pdbqt/decoy.vina_out.14.pdbqt
 OpenBabel06052021513D

 20 20  0  0  1  0  0  0  0  0999 V2000
  -19.3260   65.3530   24.7930 C   0  0  2  0  0  0  0  0  0  0  0  0
  -19.3600   65.9040   26.2280 C   0  0  0  0  0  0  0  0  0  0  0  0
  -20.4430   66.9790   26.3920 C   0  0  1  0  0  0  0  0  0  0  0  0
  -20.3400   68.0240   25.2600 C   0  0  2  0  0  0  0  0  0  0  0  0
  -20.3710   67.4000   23.9810 O   0  0  0  0  0  0  0  0  0  0  0  0
  -19.2680   66.5270   23.7970 C   0  0  2  0  0  0  0  0  0  0  0  0
  -20.5070   64.5310   24.5190 N   0  0  0  0  0  0  0  0  0  0  0  0
  -20.5220   63.2320   24.5520 C   0  0  0  0  0  0  0  0  0  0  0  0
  -19.3570   62.5180   24.8380 O   0  0  0  0  0  0  0  0  0  0  0  0
  -18.8990   62.6000   25.7370 H   0  0  0  0  0  0  0  0  0  0  0  0
  -21.7940   62.4920   24.2640 C   0  0  0  0  0  0  0  0  0  0  0  0
  -21.8930   62.1850   22.9180 F   0  0  0  0  0  0  0  0  0  0  0  0
  -22.8730   63.2750   24.6270 F   0  0  0  0  0  0  0  0  0  0  0  0
  -21.8160   61.3200   24.9970 F   0  0  0  0  0  0  0  0  0  0  0  0
  -19.3090   66.0370   22.4820 O   0  0  0  0  0  0  0  0  0  0  0  0
  -18.3690   65.9640   22.1700 H   0  0  0  0  0  0  0  0  0  0  0  0
  -21.7100   66.3740   26.3780 O   0  0  0  0  0  0  0  0  0  0  0  0
  -21.6890   65.6460   27.0530 H   0  0  0  0  0  0  0  0  0  0  0  0
  -19.1700   68.8080   25.4340 O   0  0  0  0  0  0  0  0  0  0  0  0
  -19.3220   69.6700   26.5400 C   0  0  0  0  0  0  0  0  0  0  0  0
  1  7  1  6  0  0  0
  1  2  1  0  0  0  0
  2  3  1  0  0  0  0
  3 17  1  6  0  0  0
  4 19  1  1  0  0  0
  4  3  1  0  0  0  0
  5  4  1  0  0  0  0
  6 15  1  6  0  0  0
  6  5  1  0  0  0  0
  6  1  1  0  0  0  0
  7  8  2  0  0  0  0
  8  9  1  0  0  0  0
  9 10  1  0  0  0  0
 11  8  1  0  0  0  0
 11 13  1  0  0  0  0
 11 14  1  0  0  0  0
 12 11  1  0  0  0  0
 16 15  1  0  0  0  0
 17 18  1  0  0  0  0
 19 20  1  0  0  0  0
M  END
>  <REMARK>
 VINA RESULT:      -5.3      5.547      6.840
  6 active torsions:
  status: ('A' for Active; 'I' for Inactive)
    1  A    between atoms: O1_2  and  C1_3 
    2  A    between atoms: C1_3  and  C8_17 
    3  A    between atoms: N1_4  and  C2_5 
    4  A    between atoms: C4_7  and  O2_8 
    5  A    between atoms: C5_10  and  O3_11 
    6  A    between atoms: C7_14  and  O5_15 

>  <TORSDO>
F 6

$$$$
../pdbqt/decoy.vina_out.14.pdbqt
 OpenBabel06052021513D

 20 20  0  0  1  0  0  0  0  0999 V2000
  -17.7980   64.8570   23.6680 C   0  0  2  0  0  0  0  0  0  0  0  0
  -17.7670   63.7090   24.6910 C   0  0  0  0  0  0  0  0  0  0  0  0
  -18.7140   62.5710   24.2880 C   0  0  1  0  0  0  0  0  0  0  0  0
  -20.1080   63.1310   23.9300 C   0  0  2  0  0  0  0  0  0  0  0  0
  -20.0130   64.1480   22.9380 O   0  0  0  0  0  0  0  0  0  0  0  0
  -19.2600   65.2590   23.3970 C   0  0  2  0  0  0  0  0  0  0  0  0
  -17.1550   64.4580   22.4140 N   0  0  0  0  0  0  0  0  0  0  0  0
  -16.4600   65.2550   21.6580 C   0  0  0  0  0  0  0  0  0  0  0  0
  -16.3010   66.5980   22.0040 O   0  0  0  0  0  0  0  0  0  0  0  0
  -16.5130   66.9280   22.9380 H   0  0  0  0  0  0  0  0  0  0  0  0
  -15.8360   64.7350   20.3980 C   0  0  0  0  0  0  0  0  0  0  0  0
  -14.7320   65.4910   20.0450 F   0  0  0  0  0  0  0  0  0  0  0  0
  -16.7620   64.7860   19.3730 F   0  0  0  0  0  0  0  0  0  0  0  0
  -15.4430   63.4230   20.5900 F   0  0  0  0  0  0  0  0  0  0  0  0
  -19.3030   66.2570   22.4110 O   0  0  0  0  0  0  0  0  0  0  0  0
  -20.0780   66.8420   22.6230 H   0  0  0  0  0  0  0  0  0  0  0  0
  -18.1750   61.8790   23.1910 O   0  0  0  0  0  0  0  0  0  0  0  0
  -18.7960   62.0180   22.4290 H   0  0  0  0  0  0  0  0  0  0  0  0
  -20.7530   63.6010   25.1040 O   0  0  0  0  0  0  0  0  0  0  0  0
  -21.5990   62.6010   25.6270 C   0  0  0  0  0  0  0  0  0  0  0  0
  1  7  1  6  0  0  0
  1  2  1  0  0  0  0
  3 17  1  6  0  0  0
  3  2  1  0  0  0  0
  4  3  1  0  0  0  0
  4 19  1  1  0  0  0
  5  6  1  0  0  0  0
  5  4  1  0  0  0  0
  6 15  1  6  0  0  0
  6  1  1  0  0  0  0
  8  9  1  0  0  0  0
  8  7  2  0  0  0  0
  9 10  1  0  0  0  0
 11 14  1  0  0  0  0
 11  8  1  0  0  0  0
 12 11  1  0  0  0  0
 13 11  1  0  0  0  0
 15 16  1  0  0  0  0
 18 17  1  0  0  0  0
 19 20  1  0  0  0  0
M  END
>  <REMARK>
 VINA RESULT:      -5.3      2.190      3.394
  6 active torsions:
  status: ('A' for Active; 'I' for Inactive)
    1  A    between atoms: O1_2  and  C1_3 
    2  A    between atoms: C1_3  and  C8_17 
    3  A    between atoms: N1_4  and  C2_5 
    4  A    between atoms: C4_7  and  O2_8 
    5  A    between atoms: C5_10  and  O3_11 
    6  A    between atoms: C7_14  and  O5_15 

>  <TORSDO>
F 6

$$$$
../pdbqt/decoy.vina_out.14.pdbqt
 OpenBabel06052021513D

 20 20  0  0  1  0  0  0  0  0999 V2000
  -21.3680   63.5800   24.8840 C   0  0  2  0  0  0  0  0  0  0  0  0
  -20.0910   64.3280   25.3020 C   0  0  0  0  0  0  0  0  0  0  0  0
  -19.4050   64.9870   24.0980 C   0  0  1  0  0  0  0  0  0  0  0  0
  -19.2580   63.9750   22.9410 C   0  0  2  0  0  0  0  0  0  0  0  0
  -20.5110   63.3890   22.6100 O   0  0  0  0  0  0  0  0  0  0  0  0
  -21.0490   62.6510   23.6960 C   0  0  2  0  0  0  0  0  0  0  0  0
  -22.4250   64.5200   24.5050 N   0  0  0  0  0  0  0  0  0  0  0  0
  -23.3960   64.8880   25.2870 C   0  0  0  0  0  0  0  0  0  0  0  0
  -23.5010   64.3670   26.5780 O   0  0  0  0  0  0  0  0  0  0  0  0
  -23.4750   63.3690   26.7440 H   0  0  0  0  0  0  0  0  0  0  0  0
  -24.4200   65.8680   24.7970 C   0  0  0  0  0  0  0  0  0  0  0  0
  -25.4300   66.0340   25.7280 F   0  0  0  0  0  0  0  0  0  0  0  0
  -24.9700   65.4050   23.6170 F   0  0  0  0  0  0  0  0  0  0  0  0
  -23.8120   67.0880   24.5670 F   0  0  0  0  0  0  0  0  0  0  0  0
  -22.2240   62.0190   23.2600 O   0  0  0  0  0  0  0  0  0  0  0  0
  -22.2680   62.1370   22.2750 H   0  0  0  0  0  0  0  0  0  0  0  0
  -20.1600   66.0950   23.6780 O   0  0  0  0  0  0  0  0  0  0  0  0
  -19.7010   66.9040   24.0260 H   0  0  0  0  0  0  0  0  0  0  0  0
  -18.2920   62.9920   23.2830 O   0  0  0  0  0  0  0  0  0  0  0  0
  -16.9910   63.4930   23.0630 C   0  0  0  0  0  0  0  0  0  0  0  0
  1  7  1  6  0  0  0
  1  2  1  0  0  0  0
  3 17  1  6  0  0  0
  3  2  1  0  0  0  0
  4 19  1  1  0  0  0
  4  3  1  0  0  0  0
  5  4  1  0  0  0  0
  5  6  1  0  0  0  0
  6 15  1  6  0  0  0
  6  1  1  0  0  0  0
  7  8  2  0  0  0  0
  8  9  1  0  0  0  0
  9 10  1  0  0  0  0
 11  8  1  0  0  0  0
 11 12  1  0  0  0  0
 13 11  1  0  0  0  0
 14 11  1  0  0  0  0
 16 15  1  0  0  0  0
 17 18  1  0  0  0  0
 20 19  1  0  0  0  0
M  END
>  <REMARK>
 VINA RESULT:      -5.2      5.920      7.901
  6 active torsions:
  status: ('A' for Active; 'I' for Inactive)
    1  A    between atoms: O1_2  and  C1_3 
    2  A    between atoms: C1_3  and  C8_17 
    3  A    between atoms: N1_4  and  C2_5 
    4  A    between atoms: C4_7  and  O2_8 
    5  A    between atoms: C5_10  and  O3_11 
    6  A    between atoms: C7_14  and  O5_15 

>  <TORSDO>
F 6

$$$$
../pdbqt/decoy.vina_out.14.pdbqt
 OpenBabel06052021513D

 20 20  0  0  1  0  0  0  0  0999 V2000
  -16.2760   63.8550   22.6690 C   0  0  2  0  0  0  0  0  0  0  0  0
  -15.4350   64.6050   23.7150 C   0  0  0  0  0  0  0  0  0  0  0  0
  -15.4350   66.1180   23.4570 C   0  0  1  0  0  0  0  0  0  0  0  0
  -15.1060   66.4120   21.9770 C   0  0  2  0  0  0  0  0  0  0  0  0
  -15.9820   65.7030   21.1070 O   0  0  0  0  0  0  0  0  0  0  0  0
  -15.8470   64.2990   21.2570 C   0  0  2  0  0  0  0  0  0  0  0  0
  -17.7040   64.1190   22.8570 N   0  0  0  0  0  0  0  0  0  0  0  0
  -18.5810   63.2180   23.1840 C   0  0  0  0  0  0  0  0  0  0  0  0
  -18.1970   61.8880   23.3590 O   0  0  0  0  0  0  0  0  0  0  0  0
  -17.6060   61.4190   22.6840 H   0  0  0  0  0  0  0  0  0  0  0  0
  -20.0190   63.6040   23.3610 C   0  0  0  0  0  0  0  0  0  0  0  0
  -20.5130   63.1310   24.5640 F   0  0  0  0  0  0  0  0  0  0  0  0
  -20.7670   63.0730   22.3280 F   0  0  0  0  0  0  0  0  0  0  0  0
  -20.1280   64.9830   23.3390 F   0  0  0  0  0  0  0  0  0  0  0  0
  -16.6580   63.6740   20.2970 O   0  0  0  0  0  0  0  0  0  0  0  0
  -16.5730   64.2010   19.4580 H   0  0  0  0  0  0  0  0  0  0  0  0
  -16.6910   66.6500   23.7880 O   0  0  0  0  0  0  0  0  0  0  0  0
  -17.2370   66.6410   22.9580 H   0  0  0  0  0  0  0  0  0  0  0  0
  -13.7450   66.1050   21.7170 O   0  0  0  0  0  0  0  0  0  0  0  0
  -13.2180   67.0030   20.7660 C   0  0  0  0  0  0  0  0  0  0  0  0
  1  7  1  1  0  0  0
  1  2  1  0  0  0  0
  3  2  1  0  0  0  0
  3 17  1  6  0  0  0
  4 19  1  6  0  0  0
  4  3  1  0  0  0  0
  5  6  1  0  0  0  0
  5  4  1  0  0  0  0
  6 15  1  6  0  0  0
  6  1  1  0  0  0  0
  7  8  2  0  0  0  0
  8  9  1  0  0  0  0
  8 11  1  0  0  0  0
 10  9  1  0  0  0  0
 11 12  1  0  0  0  0
 13 11  1  0  0  0  0
 14 11  1  0  0  0  0
 16 15  1  0  0  0  0
 18 17  1  0  0  0  0
 20 19  1  0  0  0  0
M  END
>  <REMARK>
 VINA RESULT:      -5.2      3.952      5.436
  6 active torsions:
  status: ('A' for Active; 'I' for Inactive)
    1  A    between atoms: O1_2  and  C1_3 
    2  A    between atoms: C1_3  and  C8_17 
    3  A    between atoms: N1_4  and  C2_5 
    4  A    between atoms: C4_7  and  O2_8 
    5  A    between atoms: C5_10  and  O3_11 
    6  A    between atoms: C7_14  and  O5_15 

>  <TORSDO>
F 6

$$$$
../pdbqt/decoy.vina_out.14.pdbqt
 OpenBabel06052021513D

 20 20  0  0  1  0  0  0  0  0999 V2000
  -16.7510   64.7010   23.3400 C   0  0  2  0  0  0  0  0  0  0  0  0
  -18.1600   64.0940   23.2320 C   0  0  0  0  0  0  0  0  0  0  0  0
  -19.1970   65.1490   22.8250 C   0  0  1  0  0  0  0  0  0  0  0  0
  -19.0610   66.4070   23.7100 C   0  0  2  0  0  0  0  0  0  0  0  0
  -17.7290   66.9070   23.6890 O   0  0  0  0  0  0  0  0  0  0  0  0
  -16.8080   65.9660   24.2180 C   0  0  2  0  0  0  0  0  0  0  0  0
  -16.2250   65.0420   22.0160 N   0  0  0  0  0  0  0  0  0  0  0  0
  -15.6960   64.1860   21.1930 C   0  0  0  0  0  0  0  0  0  0  0  0
  -15.5740   62.8430   21.5510 O   0  0  0  0  0  0  0  0  0  0  0  0
  -14.6680   62.4270   21.7290 H   0  0  0  0  0  0  0  0  0  0  0  0
  -15.1970   64.6460   19.8560 C   0  0  0  0  0  0  0  0  0  0  0  0
  -14.3220   63.7230   19.3110 F   0  0  0  0  0  0  0  0  0  0  0  0
  -14.5430   65.8550   20.0000 F   0  0  0  0  0  0  0  0  0  0  0  0
  -16.2710   64.8100   18.9990 F   0  0  0  0  0  0  0  0  0  0  0  0
  -15.5410   66.5680   24.2630 O   0  0  0  0  0  0  0  0  0  0  0  0
  -15.4220   67.0590   23.4070 H   0  0  0  0  0  0  0  0  0  0  0  0
  -19.0180   65.4860   21.4740 O   0  0  0  0  0  0  0  0  0  0  0  0
  -18.1150   65.1660   21.2140 H   0  0  0  0  0  0  0  0  0  0  0  0
  -19.4920   66.1160   25.0300 O   0  0  0  0  0  0  0  0  0  0  0  0
  -20.8910   65.9330   25.0550 C   0  0  0  0  0  0  0  0  0  0  0  0
  1  7  1  6  0  0  0
  1  6  1  0  0  0  0
  2  1  1  0  0  0  0
  3 17  1  6  0  0  0
  3  2  1  0  0  0  0
  3  4  1  0  0  0  0
  4 19  1  1  0  0  0
  5  4  1  0  0  0  0
  5  6  1  0  0  0  0
  6 15  1  6  0  0  0
  8  9  1  0  0  0  0
  8  7  2  0  0  0  0
  9 10  1  0  0  0  0
 11 13  1  0  0  0  0
 11  8  1  0  0  0  0
 12 11  1  0  0  0  0
 14 11  1  0  0  0  0
 16 15  1  0  0  0  0
 18 17  1  0  0  0  0
 19 20  1  0  0  0  0
M  END
>  <REMARK>
 VINA RESULT:      -5.1      1.725      2.532
  6 active torsions:
  status: ('A' for Active; 'I' for Inactive)
    1  A    between atoms: O1_2  and  C1_3 
    2  A    between atoms: C1_3  and  C8_17 
    3  A    between atoms: N1_4  and  C2_5 
    4  A    between atoms: C4_7  and  O2_8 
    5  A    between atoms: C5_10  and  O3_11 
    6  A    between atoms: C7_14  and  O5_15 

>  <TORSDO>
F 6

$$$$
../pdbqt/decoy.vina_out.14.pdbqt
 OpenBabel06052021513D

 20 20  0  0  1  0  0  0  0  0999 V2000
  -18.2880   64.9370   22.9840 C   0  0  2  0  0  0  0  0  0  0  0  0
  -18.1140   65.6330   21.6230 C   0  0  0  0  0  0  0  0  0  0  0  0
  -17.2980   64.7700   20.6520 C   0  0  1  0  0  0  0  0  0  0  0  0
  -16.0070   64.2660   21.3330 C   0  0  2  0  0  0  0  0  0  0  0  0
  -16.2990   63.5960   22.5540 O   0  0  0  0  0  0  0  0  0  0  0  0
  -16.9140   64.4630   23.4940 C   0  0  2  0  0  0  0  0  0  0  0  0
  -19.1960   63.7930   22.8760 N   0  0  0  0  0  0  0  0  0  0  0  0
  -20.3710   63.7320   23.4290 C   0  0  0  0  0  0  0  0  0  0  0  0
  -20.8410   64.7890   24.2100 O   0  0  0  0  0  0  0  0  0  0  0  0
  -20.2030   65.4090   24.6930 H   0  0  0  0  0  0  0  0  0  0  0  0
  -21.2230   62.5120   23.2420 C   0  0  0  0  0  0  0  0  0  0  0  0
  -20.9710   61.9170   22.0190 F   0  0  0  0  0  0  0  0  0  0  0  0
  -22.5560   62.8700   23.3010 F   0  0  0  0  0  0  0  0  0  0  0  0
  -20.9500   61.6060   24.2500 F   0  0  0  0  0  0  0  0  0  0  0  0
  -17.0710   63.7630   24.7000 O   0  0  0  0  0  0  0  0  0  0  0  0
  -17.9060   63.2310   24.6200 H   0  0  0  0  0  0  0  0  0  0  0  0
  -18.0760   63.6810   20.2250 O   0  0  0  0  0  0  0  0  0  0  0  0
  -18.3080   63.8480   19.2730 H   0  0  0  0  0  0  0  0  0  0  0  0
  -15.1130   65.3510   21.5300 O   0  0  0  0  0  0  0  0  0  0  0  0
  -14.2940   65.5170   20.3930 C   0  0  0  0  0  0  0  0  0  0  0  0
  1  7  1  6  0  0  0
  1  6  1  0  0  0  0
  2  1  1  0  0  0  0
  3 17  1  1  0  0  0
  3  4  1  0  0  0  0
  3  2  1  0  0  0  0
  4 19  1  1  0  0  0
  4  5  1  0  0  0  0
  5  6  1  0  0  0  0
  6 15  1  1  0  0  0
  7  8  2  0  0  0  0
  8  9  1  0  0  0  0
  9 10  1  0  0  0  0
 11 13  1  0  0  0  0
 11  8  1  0  0  0  0
 11 14  1  0  0  0  0
 12 11  1  0  0  0  0
 16 15  1  0  0  0  0
 18 17  1  0  0  0  0
 20 19  1  0  0  0  0
M  END
>  <REMARK>
 VINA RESULT:      -5.1      4.373      5.977
  6 active torsions:
  status: ('A' for Active; 'I' for Inactive)
    1  A    between atoms: O1_2  and  C1_3 
    2  A    between atoms: C1_3  and  C8_17 
    3  A    between atoms: N1_4  and  C2_5 
    4  A    between atoms: C4_7  and  O2_8 
    5  A    between atoms: C5_10  and  O3_11 
    6  A    between atoms: C7_14  and  O5_15 

>  <TORSDO>
F 6

$$$$
