../pdbqt/decoy.vina_out.13.pdbqt
 OpenBabel06052021513D

 20 21  0  0  1  0  0  0  0  0999 V2000
  -27.0940   63.9890   26.4500 C   0  0  2  0  0  0  0  0  0  0  0  0
  -26.7880   63.1700   27.7160 C   0  0  0  0  0  0  0  0  0  0  0  0
  -25.3770   62.6480   27.7060 C   0  0  0  0  0  0  0  0  0  0  0  0
  -25.0890   61.6620   28.4380 O   0  0  0  0  0  0  0  0  0  0  0  0
  -24.3310   63.2990   26.8800 C   0  0  0  0  0  0  0  0  0  0  0  0
  -23.0300   62.7750   26.8230 C   0  0  0  0  0  0  0  0  0  0  0  0
  -22.0370   63.3980   26.0440 C   0  0  0  0  0  0  0  0  0  0  0  0
  -22.3480   64.5570   25.3210 C   0  0  0  0  0  0  0  0  0  0  0  0
  -23.6510   65.0850   25.3770 C   0  0  0  0  0  0  0  0  0  0  0  0
  -24.6470   64.4550   26.1370 C   0  0  0  0  0  0  0  0  0  0  0  0
  -26.0240   65.0690   26.2210 C   0  0  0  0  0  0  0  0  0  0  0  0
  -28.4630   64.6060   26.5370 C   0  0  0  0  0  0  0  0  0  0  0  0
  -28.8410   65.1630   27.6050 O   0  0  0  0  0  0  0  0  0  0  0  0
  -29.3100   64.5520   25.4260 O   0  0  0  0  0  0  0  0  0  0  0  0
  -28.9310   65.0470   24.1470 C   0  0  0  0  0  0  0  0  0  0  0  0
  -28.7980   66.5590   24.2050 C   0  0  0  0  0  0  0  0  0  0  0  0
  -21.3330   65.1590   24.5590 O   0  0  0  0  0  0  0  0  0  0  0  0
  -20.9580   66.5300   24.6510 C   0  0  0  0  0  0  0  0  0  0  0  0
  -20.7290   62.8960   25.9650 O   0  0  0  0  0  0  0  0  0  0  0  0
  -20.3160   61.8460   25.0950 C   0  0  0  0  0  0  0  0  0  0  0  0
  1 12  1  1  0  0  0
  1  2  1  0  0  0  0
  3  2  1  0  0  0  0
  3  4  2  0  0  0  0
  5  3  1  0  0  0  0
  6  5  1  0  0  0  0
  7  6  2  0  0  0  0
  8  9  2  0  0  0  0
  8  7  1  0  0  0  0
  9 10  1  0  0  0  0
 10 11  1  0  0  0  0
 10  5  2  0  0  0  0
 11  1  1  0  0  0  0
 12 13  2  0  0  0  0
 14 12  1  0  0  0  0
 15 16  1  0  0  0  0
 15 14  1  0  0  0  0
 17 18  1  0  0  0  0
 17  8  1  0  0  0  0
 19  7  1  0  0  0  0
 20 19  1  0  0  0  0
M  END
>  <MODEL>
1

>  <REMARK>
 VINA RESULT:      -7.5      0.000      0.000
  5 active torsions:
  status: ('A' for Active; 'I' for Inactive)
    1  A    between atoms: C2_2  and  O1_3 
    2  A    between atoms: O1_3  and  C3_4 
    3  A    between atoms: C3_4  and  C4_6 
    4  A    between atoms: C9_12  and  O4_13 
    5  A    between atoms: C11_15  and  O5_16 

>  <TORSDO>
F 5

$$$$
../pdbqt/decoy.vina_out.13.pdbqt
 OpenBabel06052021513D

 20 21  0  0  1  0  0  0  0  0999 V2000
  -27.1530   65.5050   25.3100 C   0  0  2  0  0  0  0  0  0  0  0  0
  -26.8970   65.8770   23.8390 C   0  0  0  0  0  0  0  0  0  0  0  0
  -25.5510   66.5260   23.6620 C   0  0  0  0  0  0  0  0  0  0  0  0
  -25.3470   67.2330   22.6370 O   0  0  0  0  0  0  0  0  0  0  0  0
  -24.4680   66.3130   24.6530 C   0  0  0  0  0  0  0  0  0  0  0  0
  -23.2320   66.9670   24.5200 C   0  0  0  0  0  0  0  0  0  0  0  0
  -22.2030   66.7590   25.4570 C   0  0  0  0  0  0  0  0  0  0  0  0
  -22.4110   65.8850   26.5330 C   0  0  0  0  0  0  0  0  0  0  0  0
  -23.6480   65.2270   26.6680 C   0  0  0  0  0  0  0  0  0  0  0  0
  -24.6800   65.4480   25.7460 C   0  0  0  0  0  0  0  0  0  0  0  0
  -25.9810   64.6930   25.8850 C   0  0  0  0  0  0  0  0  0  0  0  0
  -28.4440   64.7470   25.4460 C   0  0  0  0  0  0  0  0  0  0  0  0
  -29.3520   64.8790   24.5790 O   0  0  0  0  0  0  0  0  0  0  0  0
  -28.6280   63.8990   26.5420 O   0  0  0  0  0  0  0  0  0  0  0  0
  -28.8410   64.3860   27.8630 C   0  0  0  0  0  0  0  0  0  0  0  0
  -28.3510   63.3590   28.8700 C   0  0  0  0  0  0  0  0  0  0  0  0
  -21.3620   65.6930   27.4470 O   0  0  0  0  0  0  0  0  0  0  0  0
  -21.3210   66.2460   28.7590 C   0  0  0  0  0  0  0  0  0  0  0  0
  -20.9600   67.4010   25.3530 O   0  0  0  0  0  0  0  0  0  0  0  0
  -20.6960   68.7310   25.7910 C   0  0  0  0  0  0  0  0  0  0  0  0
  1 12  1  6  0  0  0
  1 11  1  0  0  0  0
  2  1  1  0  0  0  0
  3  2  1  0  0  0  0
  3  5  1  0  0  0  0
  4  3  2  0  0  0  0
  5 10  1  0  0  0  0
  6  5  2  0  0  0  0
  6  7  1  0  0  0  0
  7  8  2  0  0  0  0
  8  9  1  0  0  0  0
  8 17  1  0  0  0  0
 10 11  1  0  0  0  0
 10  9  2  0  0  0  0
 12 14  1  0  0  0  0
 13 12  2  0  0  0  0
 14 15  1  0  0  0  0
 15 16  1  0  0  0  0
 17 18  1  0  0  0  0
 19  7  1  0  0  0  0
 19 20  1  0  0  0  0
M  END
>  <REMARK>
 VINA RESULT:      -7.2      2.346      4.067
  5 active torsions:
  status: ('A' for Active; 'I' for Inactive)
    1  A    between atoms: C2_2  and  O1_3 
    2  A    between atoms: O1_3  and  C3_4 
    3  A    between atoms: C3_4  and  C4_6 
    4  A    between atoms: C9_12  and  O4_13 
    5  A    between atoms: C11_15  and  O5_16 

>  <TORSDO>
F 5

$$$$
../pdbqt/decoy.vina_out.13.pdbqt
 OpenBabel06052021513D

 20 21  0  0  1  0  0  0  0  0999 V2000
  -26.6010   63.6380   28.8900 C   0  0  2  0  0  0  0  0  0  0  0  0
  -27.8000   63.3160   27.9810 C   0  0  0  0  0  0  0  0  0  0  0  0
  -27.7870   64.1580   26.7340 C   0  0  0  0  0  0  0  0  0  0  0  0
  -28.8630   64.3120   26.0930 O   0  0  0  0  0  0  0  0  0  0  0  0
  -26.5280   64.7680   26.2420 C   0  0  0  0  0  0  0  0  0  0  0  0
  -26.5270   65.6040   25.1130 C   0  0  0  0  0  0  0  0  0  0  0  0
  -25.3300   66.1770   24.6440 C   0  0  0  0  0  0  0  0  0  0  0  0
  -24.1250   65.9080   25.3070 C   0  0  0  0  0  0  0  0  0  0  0  0
  -24.1230   65.0690   26.4370 C   0  0  0  0  0  0  0  0  0  0  0  0
  -25.3170   64.5140   26.9180 C   0  0  0  0  0  0  0  0  0  0  0  0
  -25.2820   63.5780   28.1030 C   0  0  0  0  0  0  0  0  0  0  0  0
  -26.5630   62.7020   30.0660 C   0  0  0  0  0  0  0  0  0  0  0  0
  -26.4080   61.4620   29.8860 O   0  0  0  0  0  0  0  0  0  0  0  0
  -26.7040   63.2180   31.3580 O   0  0  0  0  0  0  0  0  0  0  0  0
  -25.7160   64.0410   31.9680 C   0  0  0  0  0  0  0  0  0  0  0  0
  -26.3350   65.3710   32.3640 C   0  0  0  0  0  0  0  0  0  0  0  0
  -22.9470   66.4890   24.8090 O   0  0  0  0  0  0  0  0  0  0  0  0
  -21.9970   67.1960   25.6000 C   0  0  0  0  0  0  0  0  0  0  0  0
  -25.2980   67.0180   23.5210 O   0  0  0  0  0  0  0  0  0  0  0  0
  -26.3070   67.0680   22.5170 C   0  0  0  0  0  0  0  0  0  0  0  0
  1 12  1  1  0  0  0
  2  1  1  0  0  0  0
  3  2  1  0  0  0  0
  4  3  2  0  0  0  0
  5  3  1  0  0  0  0
  5 10  2  0  0  0  0
  6  5  1  0  0  0  0
  7  6  2  0  0  0  0
  7  8  1  0  0  0  0
  8  9  2  0  0  0  0
  9 10  1  0  0  0  0
 10 11  1  0  0  0  0
 11  1  1  0  0  0  0
 12 14  1  0  0  0  0
 13 12  2  0  0  0  0
 14 15  1  0  0  0  0
 15 16  1  0  0  0  0
 17  8  1  0  0  0  0
 17 18  1  0  0  0  0
 19  7  1  0  0  0  0
 20 19  1  0  0  0  0
M  END
>  <REMARK>
 VINA RESULT:      -7.1      2.453      4.813
  5 active torsions:
  status: ('A' for Active; 'I' for Inactive)
    1  A    between atoms: C2_2  and  O1_3 
    2  A    between atoms: O1_3  and  C3_4 
    3  A    between atoms: C3_4  and  C4_6 
    4  A    between atoms: C9_12  and  O4_13 
    5  A    between atoms: C11_15  and  O5_16 

>  <TORSDO>
F 5

$$$$
../pdbqt/decoy.vina_out.13.pdbqt
 OpenBabel06052021513D

 20 21  0  0  1  0  0  0  0  0999 V2000
  -25.5990   66.4920   24.5750 C   0  0  2  0  0  0  0  0  0  0  0  0
  -24.1090   66.4980   24.1910 C   0  0  0  0  0  0  0  0  0  0  0  0
  -23.2380   66.1250   25.3600 C   0  0  0  0  0  0  0  0  0  0  0  0
  -22.0210   66.4560   25.3420 O   0  0  0  0  0  0  0  0  0  0  0  0
  -23.7860   65.3490   26.4990 C   0  0  0  0  0  0  0  0  0  0  0  0
  -22.9900   65.0540   27.6170 C   0  0  0  0  0  0  0  0  0  0  0  0
  -23.5100   64.3120   28.6950 C   0  0  0  0  0  0  0  0  0  0  0  0
  -24.8350   63.8580   28.6500 C   0  0  0  0  0  0  0  0  0  0  0  0
  -25.6350   64.1520   27.5300 C   0  0  0  0  0  0  0  0  0  0  0  0
  -25.1250   64.9070   26.4650 C   0  0  0  0  0  0  0  0  0  0  0  0
  -25.9870   65.1670   25.2520 C   0  0  0  0  0  0  0  0  0  0  0  0
  -26.4570   66.7430   23.3650 C   0  0  0  0  0  0  0  0  0  0  0  0
  -26.1710   67.6790   22.5680 O   0  0  0  0  0  0  0  0  0  0  0  0
  -27.5740   65.9340   23.1390 O   0  0  0  0  0  0  0  0  0  0  0  0
  -28.8510   66.2100   23.7040 C   0  0  0  0  0  0  0  0  0  0  0  0
  -29.4040   64.9520   24.3530 C   0  0  0  0  0  0  0  0  0  0  0  0
  -25.3220   63.1140   29.7380 O   0  0  0  0  0  0  0  0  0  0  0  0
  -26.3720   62.1560   29.6560 C   0  0  0  0  0  0  0  0  0  0  0  0
  -22.7400   64.0040   29.8270 O   0  0  0  0  0  0  0  0  0  0  0  0
  -21.6590   63.0760   29.8430 C   0  0  0  0  0  0  0  0  0  0  0  0
  1 12  1  6  0  0  0
  1 11  1  0  0  0  0
  2  1  1  0  0  0  0
  2  3  1  0  0  0  0
  3  5  1  0  0  0  0
  4  3  2  0  0  0  0
  5  6  1  0  0  0  0
  6  7  2  0  0  0  0
  7 19  1  0  0  0  0
  8  7  1  0  0  0  0
  8 17  1  0  0  0  0
  9  8  2  0  0  0  0
 10  5  2  0  0  0  0
 10  9  1  0  0  0  0
 11 10  1  0  0  0  0
 13 12  2  0  0  0  0
 14 12  1  0  0  0  0
 14 15  1  0  0  0  0
 15 16  1  0  0  0  0
 18 17  1  0  0  0  0
 19 20  1  0  0  0  0
M  END
>  <REMARK>
 VINA RESULT:      -7.1      2.424      4.442
  5 active torsions:
  status: ('A' for Active; 'I' for Inactive)
    1  A    between atoms: C2_2  and  O1_3 
    2  A    between atoms: O1_3  and  C3_4 
    3  A    between atoms: C3_4  and  C4_6 
    4  A    between atoms: C9_12  and  O4_13 
    5  A    between atoms: C11_15  and  O5_16 

>  <TORSDO>
F 5

$$$$
../pdbqt/decoy.vina_out.13.pdbqt
 OpenBabel06052021513D

 20 21  0  0  1  0  0  0  0  0999 V2000
  -22.2530   67.0640   25.7200 C   0  0  2  0  0  0  0  0  0  0  0  0
  -21.7770   65.7820   26.4250 C   0  0  0  0  0  0  0  0  0  0  0  0
  -22.9380   64.9680   26.9300 C   0  0  0  0  0  0  0  0  0  0  0  0
  -22.7360   64.1250   27.8470 O   0  0  0  0  0  0  0  0  0  0  0  0
  -24.2900   65.1240   26.3390 C   0  0  0  0  0  0  0  0  0  0  0  0
  -25.3850   64.4090   26.8510 C   0  0  0  0  0  0  0  0  0  0  0  0
  -26.6650   64.5530   26.2860 C   0  0  0  0  0  0  0  0  0  0  0  0
  -26.8500   65.4150   25.1960 C   0  0  0  0  0  0  0  0  0  0  0  0
  -25.7530   66.1310   24.6800 C   0  0  0  0  0  0  0  0  0  0  0  0
  -24.4810   66.0030   25.2540 C   0  0  0  0  0  0  0  0  0  0  0  0
  -23.3120   66.7440   24.6520 C   0  0  0  0  0  0  0  0  0  0  0  0
  -21.0880   67.7970   25.1140 C   0  0  0  0  0  0  0  0  0  0  0  0
  -20.5110   67.3360   24.0910 O   0  0  0  0  0  0  0  0  0  0  0  0
  -20.6520   68.9910   25.6970 O   0  0  0  0  0  0  0  0  0  0  0  0
  -19.3090   69.1920   26.1220 C   0  0  0  0  0  0  0  0  0  0  0  0
  -19.2750   69.3830   27.6300 C   0  0  0  0  0  0  0  0  0  0  0  0
  -28.1390   65.5310   24.6490 O   0  0  0  0  0  0  0  0  0  0  0  0
  -28.6860   66.7330   24.1160 C   0  0  0  0  0  0  0  0  0  0  0  0
  -27.7800   63.8560   26.7770 O   0  0  0  0  0  0  0  0  0  0  0  0
  -28.0760   63.6750   28.1590 C   0  0  0  0  0  0  0  0  0  0  0  0
  1 12  1  6  0  0  0
  1  2  1  0  0  0  0
  2  3  1  0  0  0  0
  3  4  2  0  0  0  0
  5  6  1  0  0  0  0
  5  3  1  0  0  0  0
  7 19  1  0  0  0  0
  7  6  2  0  0  0  0
  8  7  1  0  0  0  0
  9  8  2  0  0  0  0
  9 10  1  0  0  0  0
 10  5  2  0  0  0  0
 11 10  1  0  0  0  0
 11  1  1  0  0  0  0
 12 14  1  0  0  0  0
 13 12  2  0  0  0  0
 14 15  1  0  0  0  0
 15 16  1  0  0  0  0
 17  8  1  0  0  0  0
 18 17  1  0  0  0  0
 19 20  1  0  0  0  0
M  END
>  <REMARK>
 VINA RESULT:      -7.0      2.180      6.599
  5 active torsions:
  status: ('A' for Active; 'I' for Inactive)
    1  A    between atoms: C2_2  and  O1_3 
    2  A    between atoms: O1_3  and  C3_4 
    3  A    between atoms: C3_4  and  C4_6 
    4  A    between atoms: C9_12  and  O4_13 
    5  A    between atoms: C11_15  and  O5_16 

>  <TORSDO>
F 5

$$$$
../pdbqt/decoy.vina_out.13.pdbqt
 OpenBabel06052021513D

 20 21  0  0  1  0  0  0  0  0999 V2000
  -25.4420   66.0160   24.1910 C   0  0  2  0  0  0  0  0  0  0  0  0
  -26.1080   65.5500   25.4970 C   0  0  0  0  0  0  0  0  0  0  0  0
  -25.1870   64.6750   26.3040 C   0  0  0  0  0  0  0  0  0  0  0  0
  -25.6830   63.9050   27.1710 O   0  0  0  0  0  0  0  0  0  0  0  0
  -23.7170   64.7390   26.1120 C   0  0  0  0  0  0  0  0  0  0  0  0
  -22.8610   63.8800   26.8200 C   0  0  0  0  0  0  0  0  0  0  0  0
  -21.4670   63.9470   26.6430 C   0  0  0  0  0  0  0  0  0  0  0  0
  -20.9240   64.8840   25.7520 C   0  0  0  0  0  0  0  0  0  0  0  0
  -21.7800   65.7470   25.0420 C   0  0  0  0  0  0  0  0  0  0  0  0
  -23.1700   65.6690   25.2040 C   0  0  0  0  0  0  0  0  0  0  0  0
  -24.0630   66.6380   24.4680 C   0  0  0  0  0  0  0  0  0  0  0  0
  -26.3290   66.9870   23.4620 C   0  0  0  0  0  0  0  0  0  0  0  0
  -25.9250   68.1590   23.2240 O   0  0  0  0  0  0  0  0  0  0  0  0
  -27.6030   66.5790   23.0560 O   0  0  0  0  0  0  0  0  0  0  0  0
  -28.7600   66.7530   23.8670 C   0  0  0  0  0  0  0  0  0  0  0  0
  -29.3860   65.4000   24.1590 C   0  0  0  0  0  0  0  0  0  0  0  0
  -19.5280   64.9300   25.6030 O   0  0  0  0  0  0  0  0  0  0  0  0
  -18.8090   64.3170   24.5370 C   0  0  0  0  0  0  0  0  0  0  0  0
  -20.5860   63.0990   27.3330 O   0  0  0  0  0  0  0  0  0  0  0  0
  -20.2670   63.2180   28.7170 C   0  0  0  0  0  0  0  0  0  0  0  0
  1 12  1  1  0  0  0
  1 11  1  0  0  0  0
  1  2  1  0  0  0  0
  2  3  1  0  0  0  0
  3  4  2  0  0  0  0
  5  3  1  0  0  0  0
  5  6  2  0  0  0  0
  7  6  1  0  0  0  0
  7 19  1  0  0  0  0
  8  7  2  0  0  0  0
  9 10  2  0  0  0  0
  9  8  1  0  0  0  0
 10  5  1  0  0  0  0
 11 10  1  0  0  0  0
 13 12  2  0  0  0  0
 14 12  1  0  0  0  0
 14 15  1  0  0  0  0
 15 16  1  0  0  0  0
 17  8  1  0  0  0  0
 18 17  1  0  0  0  0
 19 20  1  0  0  0  0
M  END
>  <REMARK>
 VINA RESULT:      -6.9      2.222      2.883
  5 active torsions:
  status: ('A' for Active; 'I' for Inactive)
    1  A    between atoms: C2_2  and  O1_3 
    2  A    between atoms: O1_3  and  C3_4 
    3  A    between atoms: C3_4  and  C4_6 
    4  A    between atoms: C9_12  and  O4_13 
    5  A    between atoms: C11_15  and  O5_16 

>  <TORSDO>
F 5

$$$$
../pdbqt/decoy.vina_out.13.pdbqt
 OpenBabel06052021513D

 20 21  0  0  1  0  0  0  0  0999 V2000
  -22.5700   65.3830   25.4000 C   0  0  2  0  0  0  0  0  0  0  0  0
  -23.0480   66.6650   24.6960 C   0  0  0  0  0  0  0  0  0  0  0  0
  -24.5290   66.6300   24.4340 C   0  0  0  0  0  0  0  0  0  0  0  0
  -25.0070   67.3830   23.5420 O   0  0  0  0  0  0  0  0  0  0  0  0
  -25.4210   65.7530   25.2310 C   0  0  0  0  0  0  0  0  0  0  0  0
  -26.7940   65.6740   24.9450 C   0  0  0  0  0  0  0  0  0  0  0  0
  -27.6410   64.8460   25.7070 C   0  0  0  0  0  0  0  0  0  0  0  0
  -27.1090   64.0960   26.7650 C   0  0  0  0  0  0  0  0  0  0  0  0
  -25.7340   64.1740   27.0540 C   0  0  0  0  0  0  0  0  0  0  0  0
  -24.8860   64.9830   26.2840 C   0  0  0  0  0  0  0  0  0  0  0  0
  -23.4240   65.0880   26.6450 C   0  0  0  0  0  0  0  0  0  0  0  0
  -21.1150   65.4920   25.7660 C   0  0  0  0  0  0  0  0  0  0  0  0
  -20.7430   66.3070   26.6550 O   0  0  0  0  0  0  0  0  0  0  0  0
  -20.1820   64.6840   25.1090 O   0  0  0  0  0  0  0  0  0  0  0  0
  -20.5180   63.4130   24.5620 C   0  0  0  0  0  0  0  0  0  0  0  0
  -20.3870   62.3460   25.6360 C   0  0  0  0  0  0  0  0  0  0  0  0
  -27.9820   63.2860   27.5100 O   0  0  0  0  0  0  0  0  0  0  0  0
  -28.5050   63.6250   28.7900 C   0  0  0  0  0  0  0  0  0  0  0  0
  -29.0150   64.7440   25.4440 O   0  0  0  0  0  0  0  0  0  0  0  0
  -29.6450   65.1860   24.2450 C   0  0  0  0  0  0  0  0  0  0  0  0
  1 12  1  1  0  0  0
  1 11  1  0  0  0  0
  2  1  1  0  0  0  0
  3  2  1  0  0  0  0
  3  5  1  0  0  0  0
  4  3  2  0  0  0  0
  5 10  1  0  0  0  0
  6  5  2  0  0  0  0
  6  7  1  0  0  0  0
  7  8  2  0  0  0  0
  8  9  1  0  0  0  0
  8 17  1  0  0  0  0
 10 11  1  0  0  0  0
 10  9  2  0  0  0  0
 12 13  2  0  0  0  0
 14 12  1  0  0  0  0
 15 14  1  0  0  0  0
 15 16  1  0  0  0  0
 17 18  1  0  0  0  0
 19  7  1  0  0  0  0
 20 19  1  0  0  0  0
M  END
>  <REMARK>
 VINA RESULT:      -6.9      1.731      6.833
  5 active torsions:
  status: ('A' for Active; 'I' for Inactive)
    1  A    between atoms: C2_2  and  O1_3 
    2  A    between atoms: O1_3  and  C3_4 
    3  A    between atoms: C3_4  and  C4_6 
    4  A    between atoms: C9_12  and  O4_13 
    5  A    between atoms: C11_15  and  O5_16 

>  <TORSDO>
F 5

$$$$
../pdbqt/decoy.vina_out.13.pdbqt
 OpenBabel06052021513D

 20 21  0  0  1  0  0  0  0  0999 V2000
  -22.4670   64.9690   25.6470 C   0  0  2  0  0  0  0  0  0  0  0  0
  -22.4780   63.5620   26.2700 C   0  0  0  0  0  0  0  0  0  0  0  0
  -23.8010   63.2580   26.9200 C   0  0  0  0  0  0  0  0  0  0  0  0
  -23.8560   62.3510   27.7940 O   0  0  0  0  0  0  0  0  0  0  0  0
  -25.0300   63.9850   26.5170 C   0  0  0  0  0  0  0  0  0  0  0  0
  -26.2520   63.7450   27.1650 C   0  0  0  0  0  0  0  0  0  0  0  0
  -27.4190   64.4300   26.7770 C   0  0  0  0  0  0  0  0  0  0  0  0
  -27.3620   65.3600   25.7290 C   0  0  0  0  0  0  0  0  0  0  0  0
  -26.1390   65.6010   25.0770 C   0  0  0  0  0  0  0  0  0  0  0  0
  -24.9720   64.9330   25.4750 C   0  0  0  0  0  0  0  0  0  0  0  0
  -23.6820   65.1730   24.7280 C   0  0  0  0  0  0  0  0  0  0  0  0
  -21.1850   65.2040   24.8970 C   0  0  0  0  0  0  0  0  0  0  0  0
  -20.8180   64.3970   23.9990 O   0  0  0  0  0  0  0  0  0  0  0  0
  -20.4060   66.3230   25.2070 O   0  0  0  0  0  0  0  0  0  0  0  0
  -20.7220   67.2060   26.2770 C   0  0  0  0  0  0  0  0  0  0  0  0
  -21.0890   68.5720   25.7200 C   0  0  0  0  0  0  0  0  0  0  0  0
  -28.5450   66.0220   25.3610 O   0  0  0  0  0  0  0  0  0  0  0  0
  -28.6630   66.9110   24.2560 C   0  0  0  0  0  0  0  0  0  0  0  0
  -28.6540   64.2140   27.4080 O   0  0  0  0  0  0  0  0  0  0  0  0
  -28.8110   63.8380   28.7730 C   0  0  0  0  0  0  0  0  0  0  0  0
  1 12  1  6  0  0  0
  1  2  1  0  0  0  0
  2  3  1  0  0  0  0
  3  4  2  0  0  0  0
  5  3  1  0  0  0  0
  5  6  2  0  0  0  0
  7  6  1  0  0  0  0
  7 19  1  0  0  0  0
  8  7  2  0  0  0  0
  9 10  2  0  0  0  0
  9  8  1  0  0  0  0
 10  5  1  0  0  0  0
 11 10  1  0  0  0  0
 11  1  1  0  0  0  0
 12 14  1  0  0  0  0
 13 12  2  0  0  0  0
 14 15  1  0  0  0  0
 16 15  1  0  0  0  0
 17  8  1  0  0  0  0
 18 17  1  0  0  0  0
 19 20  1  0  0  0  0
M  END
>  <REMARK>
 VINA RESULT:      -6.7      1.360      6.173
  5 active torsions:
  status: ('A' for Active; 'I' for Inactive)
    1  A    between atoms: C2_2  and  O1_3 
    2  A    between atoms: O1_3  and  C3_4 
    3  A    between atoms: C3_4  and  C4_6 
    4  A    between atoms: C9_12  and  O4_13 
    5  A    between atoms: C11_15  and  O5_16 

>  <TORSDO>
F 5

$$$$
../pdbqt/decoy.vina_out.13.pdbqt
 OpenBabel06052021513D

 20 21  0  0  1  0  0  0  0  0999 V2000
  -25.9900   63.9460   27.9480 C   0  0  2  0  0  0  0  0  0  0  0  0
  -26.6070   64.6760   26.7440 C   0  0  0  0  0  0  0  0  0  0  0  0
  -25.5480   65.1520   25.7860 C   0  0  0  0  0  0  0  0  0  0  0  0
  -25.8290   66.0820   24.9820 O   0  0  0  0  0  0  0  0  0  0  0  0
  -24.2080   64.5170   25.7590 C   0  0  0  0  0  0  0  0  0  0  0  0
  -23.2010   65.0010   24.9090 C   0  0  0  0  0  0  0  0  0  0  0  0
  -21.9310   64.3940   24.8790 C   0  0  0  0  0  0  0  0  0  0  0  0
  -21.6700   63.2900   25.7040 C   0  0  0  0  0  0  0  0  0  0  0  0
  -22.6790   62.8030   26.5560 C   0  0  0  0  0  0  0  0  0  0  0  0
  -23.9370   63.4190   26.6000 C   0  0  0  0  0  0  0  0  0  0  0  0
  -25.0180   62.8470   27.4870 C   0  0  0  0  0  0  0  0  0  0  0  0
  -27.0670   63.3700   28.8260 C   0  0  0  0  0  0  0  0  0  0  0  0
  -27.5940   62.2600   28.5390 O   0  0  0  0  0  0  0  0  0  0  0  0
  -27.4780   64.0790   29.9590 O   0  0  0  0  0  0  0  0  0  0  0  0
  -26.9660   63.8100   31.2600 C   0  0  0  0  0  0  0  0  0  0  0  0
  -25.6350   64.5220   31.4410 C   0  0  0  0  0  0  0  0  0  0  0  0
  -20.3960   62.7020   25.6450 O   0  0  0  0  0  0  0  0  0  0  0  0
  -20.0840   61.5200   24.9160 C   0  0  0  0  0  0  0  0  0  0  0  0
  -20.9030   64.8560   24.0430 O   0  0  0  0  0  0  0  0  0  0  0  0
  -20.1280   66.0270   24.2840 C   0  0  0  0  0  0  0  0  0  0  0  0
  1 12  1  6  0  0  0
  2  1  1  0  0  0  0
  3  2  1  0  0  0  0
  4  3  2  0  0  0  0
  5  3  1  0  0  0  0
  5 10  2  0  0  0  0
  6  5  1  0  0  0  0
  7  6  2  0  0  0  0
  7  8  1  0  0  0  0
  8  9  2  0  0  0  0
  9 10  1  0  0  0  0
 10 11  1  0  0  0  0
 11  1  1  0  0  0  0
 12 14  1  0  0  0  0
 13 12  2  0  0  0  0
 14 15  1  0  0  0  0
 15 16  1  0  0  0  0
 17  8  1  0  0  0  0
 18 17  1  0  0  0  0
 19 20  1  0  0  0  0
 19  7  1  0  0  0  0
M  END
>  <REMARK>
 VINA RESULT:      -6.6      1.843      3.922
  5 active torsions:
  status: ('A' for Active; 'I' for Inactive)
    1  A    between atoms: C2_2  and  O1_3 
    2  A    between atoms: O1_3  and  C3_4 
    3  A    between atoms: C3_4  and  C4_6 
    4  A    between atoms: C9_12  and  O4_13 
    5  A    between atoms: C11_15  and  O5_16 

>  <TORSDO>
F 5

$$$$
