../pdbqt/decoy.vina_out.9.pdbqt
 OpenBabel06052021513D

 22 23  0  0  0  0  0  0  0  0999 V2000
  -20.5010   64.4860   23.9490 C   0  0  0  0  0  0  0  0  0  0  0  0
  -21.6640   64.3690   24.6210 N   0  0  0  0  0  0  0  0  0  0  0  0
  -21.8170   65.5680   25.2090 C   0  0  0  0  0  0  0  0  0  0  0  0
  -20.7470   66.3860   24.8840 C   0  0  0  0  0  0  0  0  0  0  0  0
  -19.9150   65.6940   24.0840 N   0  0  0  0  0  0  0  0  0  0  0  0
  -22.9400   65.8920   26.0370 N   0  0  0  0  0  0  0  0  0  0  0  0
  -22.7990   66.0840   27.0500 H   0  0  0  0  0  0  0  0  0  0  0  0
  -24.2220   65.9500   25.4610 N   0  0  0  0  0  0  0  0  0  0  0  0
  -25.2090   65.2200   25.8300 N   0  0  0  0  0  0  0  0  0  0  0  0
  -25.0180   64.0340   26.6760 C   0  0  0  0  0  0  0  0  0  0  0  0
  -26.5640   65.5990   25.3900 C   0  0  0  0  0  0  0  0  0  0  0  0
  -26.6430   65.6510   23.8530 C   0  0  0  0  0  0  0  0  0  0  0  0
  -28.0190   66.1530   23.3690 C   0  0  0  0  0  0  0  0  0  0  0  0
  -29.1720   65.8100   24.3360 C   0  0  0  0  0  0  0  0  0  0  0  0
  -28.8970   64.5200   25.1140 C   0  0  0  0  0  0  0  0  0  0  0  0
  -27.6220   64.6300   25.9770 C   0  0  0  0  0  0  0  0  0  0  0  0
  -20.4800   67.7780   25.2910 C   0  0  0  0  0  0  0  0  0  0  0  0
  -21.4180   68.5490   25.6260 O   0  0  0  0  0  0  0  0  0  0  0  0
  -19.1300   68.2540   25.3040 N   0  0  0  0  0  0  0  0  0  0  0  0
  -18.8000   69.5660   25.6820 N   0  0  0  0  0  0  0  0  0  0  0  0
  -17.7610   69.6650   25.6120 H   0  0  0  0  0  0  0  0  0  0  0  0
  -19.2310   70.2150   24.9840 H   0  0  0  0  0  0  0  0  0  0  0  0
  1  5  2  0  0  0  0
  1  2  1  0  0  0  0
  2  3  1  0  0  0  0
  3  6  1  0  0  0  0
  4  3  2  0  0  0  0
  4 17  1  0  0  0  0
  5  4  1  0  0  0  0
  6  7  1  0  0  0  0
  8  9  1  0  0  0  0
  8  6  1  0  0  0  0
  9 10  1  0  0  0  0
 11  9  1  0  0  0  0
 11 16  1  0  0  0  0
 12 11  1  0  0  0  0
 13 12  1  0  0  0  0
 13 14  1  0  0  0  0
 14 15  1  0  0  0  0
 15 16  1  0  0  0  0
 17 19  1  0  0  0  0
 17 18  2  0  0  0  0
 19 20  1  0  0  0  0
 21 20  1  0  0  0  0
 22 20  1  0  0  0  0
M  END
>  <MODEL>
1

>  <REMARK>
 VINA RESULT:      -7.0      0.000      0.000
  6 active torsions:
  status: ('A' for Active; 'I' for Inactive)
    1  A    between atoms: C2_3  and  N2_4 
    2  A    between atoms: N2_4  and  N3_6 
    3  A    between atoms: N3_6  and  N4_7 
    4  A    between atoms: N4_7  and  C4_9 
    5  A    between atoms: C10_15  and  C11_16 
       I    between atoms: C11_16  and  N5_18 
    6  A    between atoms: N5_18  and  N6_19 

>  <TORSDO>
F 6

$$$$
../pdbqt/decoy.vina_out.9.pdbqt
 OpenBabel06052021513D

 22 23  0  0  0  0  0  0  0  0999 V2000
  -26.3470   66.9870   22.4850 C   0  0  0  0  0  0  0  0  0  0  0  0
  -25.3350   66.8170   23.3600 N   0  0  0  0  0  0  0  0  0  0  0  0
  -25.8840   66.0900   24.3480 C   0  0  0  0  0  0  0  0  0  0  0  0
  -27.2130   65.8340   24.0550 C   0  0  0  0  0  0  0  0  0  0  0  0
  -27.5020   66.4050   22.8710 N   0  0  0  0  0  0  0  0  0  0  0  0
  -25.1520   65.6720   25.5060 N   0  0  0  0  0  0  0  0  0  0  0  0
  -25.3440   66.1140   26.4280 H   0  0  0  0  0  0  0  0  0  0  0  0
  -24.1820   64.6620   25.3760 N   0  0  0  0  0  0  0  0  0  0  0  0
  -23.8940   63.8190   26.2980 N   0  0  0  0  0  0  0  0  0  0  0  0
  -22.6740   63.0010   26.2400 C   0  0  0  0  0  0  0  0  0  0  0  0
  -24.8180   63.6820   27.4370 C   0  0  0  0  0  0  0  0  0  0  0  0
  -25.0320   62.1990   27.7900 C   0  0  0  0  0  0  0  0  0  0  0  0
  -26.0810   62.0250   28.9080 C   0  0  0  0  0  0  0  0  0  0  0  0
  -26.1430   63.2180   29.8840 C   0  0  0  0  0  0  0  0  0  0  0  0
  -24.7870   63.9190   30.0120 C   0  0  0  0  0  0  0  0  0  0  0  0
  -24.3030   64.4850   28.6600 C   0  0  0  0  0  0  0  0  0  0  0  0
  -28.2120   65.0800   24.8360 C   0  0  0  0  0  0  0  0  0  0  0  0
  -29.3290   64.7760   24.3400 O   0  0  0  0  0  0  0  0  0  0  0  0
  -27.9000   64.6930   26.1780 N   0  0  0  0  0  0  0  0  0  0  0  0
  -28.8010   63.9730   26.9800 N   0  0  0  0  0  0  0  0  0  0  0  0
  -29.0020   63.0670   26.4970 H   0  0  0  0  0  0  0  0  0  0  0  0
  -28.3190   63.7550   27.8820 H   0  0  0  0  0  0  0  0  0  0  0  0
  1  5  2  0  0  0  0
  1  2  1  0  0  0  0
  2  3  1  0  0  0  0
  3  6  1  0  0  0  0
  4  3  2  0  0  0  0
  4 17  1  0  0  0  0
  5  4  1  0  0  0  0
  6  7  1  0  0  0  0
  8  6  1  0  0  0  0
  8  9  1  0  0  0  0
  9 11  1  0  0  0  0
 10  9  1  0  0  0  0
 11 12  1  0  0  0  0
 11 16  1  0  0  0  0
 12 13  1  0  0  0  0
 13 14  1  0  0  0  0
 14 15  1  0  0  0  0
 16 15  1  0  0  0  0
 17 19  1  0  0  0  0
 18 17  2  0  0  0  0
 19 20  1  0  0  0  0
 20 22  1  0  0  0  0
 21 20  1  0  0  0  0
M  END
>  <REMARK>
 VINA RESULT:      -6.8      3.821      6.361
  6 active torsions:
  status: ('A' for Active; 'I' for Inactive)
    1  A    between atoms: C2_3  and  N2_4 
    2  A    between atoms: N2_4  and  N3_6 
    3  A    between atoms: N3_6  and  N4_7 
    4  A    between atoms: N4_7  and  C4_9 
    5  A    between atoms: C10_15  and  C11_16 
       I    between atoms: C11_16  and  N5_18 
    6  A    between atoms: N5_18  and  N6_19 

>  <TORSDO>
F 6

$$$$
../pdbqt/decoy.vina_out.9.pdbqt
 OpenBabel06052021513D

 22 23  0  0  0  0  0  0  0  0999 V2000
  -21.2020   64.6410   26.1390 C   0  0  0  0  0  0  0  0  0  0  0  0
  -22.3710   64.8700   25.5080 N   0  0  0  0  0  0  0  0  0  0  0  0
  -22.3460   66.1890   25.2530 C   0  0  0  0  0  0  0  0  0  0  0  0
  -21.1660   66.7340   25.7330 C   0  0  0  0  0  0  0  0  0  0  0  0
  -20.4430   65.7470   26.2940 N   0  0  0  0  0  0  0  0  0  0  0  0
  -23.4110   66.8730   24.5820 N   0  0  0  0  0  0  0  0  0  0  0  0
  -23.4620   67.9110   24.6160 H   0  0  0  0  0  0  0  0  0  0  0  0
  -24.3730   66.1230   23.8810 N   0  0  0  0  0  0  0  0  0  0  0  0
  -25.5900   66.4900   23.7160 N   0  0  0  0  0  0  0  0  0  0  0  0
  -25.9300   67.8130   23.1750 C   0  0  0  0  0  0  0  0  0  0  0  0
  -26.6620   65.5470   24.0800 C   0  0  0  0  0  0  0  0  0  0  0  0
  -26.7680   65.4060   25.6100 C   0  0  0  0  0  0  0  0  0  0  0  0
  -27.8080   64.3410   26.0140 C   0  0  0  0  0  0  0  0  0  0  0  0
  -28.9590   64.1880   24.9970 C   0  0  0  0  0  0  0  0  0  0  0  0
  -29.2410   65.5000   24.2580 C   0  0  0  0  0  0  0  0  0  0  0  0
  -28.0130   65.9850   23.4590 C   0  0  0  0  0  0  0  0  0  0  0  0
  -20.6970   68.1310   25.6850 C   0  0  0  0  0  0  0  0  0  0  0  0
  -21.5120   69.0880   25.6060 O   0  0  0  0  0  0  0  0  0  0  0  0
  -19.2910   68.3970   25.7280 N   0  0  0  0  0  0  0  0  0  0  0  0
  -18.7720   69.7010   25.6880 N   0  0  0  0  0  0  0  0  0  0  0  0
  -19.5270   70.3320   25.3340 H   0  0  0  0  0  0  0  0  0  0  0  0
  -18.5500   69.9850   26.6690 H   0  0  0  0  0  0  0  0  0  0  0  0
  1  5  2  0  0  0  0
  2  1  1  0  0  0  0
  3  2  1  0  0  0  0
  3  4  2  0  0  0  0
  4  5  1  0  0  0  0
  6  7  1  0  0  0  0
  6  3  1  0  0  0  0
  8  6  1  0  0  0  0
  9  8  1  0  0  0  0
  9 11  1  0  0  0  0
 10  9  1  0  0  0  0
 11 12  1  0  0  0  0
 12 13  1  0  0  0  0
 14 13  1  0  0  0  0
 15 14  1  0  0  0  0
 16 11  1  0  0  0  0
 16 15  1  0  0  0  0
 17 19  1  0  0  0  0
 17  4  1  0  0  0  0
 18 17  2  0  0  0  0
 20 19  1  0  0  0  0
 20 22  1  0  0  0  0
 21 20  1  0  0  0  0
M  END
>  <REMARK>
 VINA RESULT:      -6.8      1.266      2.084
  6 active torsions:
  status: ('A' for Active; 'I' for Inactive)
    1  A    between atoms: C2_3  and  N2_4 
    2  A    between atoms: N2_4  and  N3_6 
    3  A    between atoms: N3_6  and  N4_7 
    4  A    between atoms: N4_7  and  C4_9 
    5  A    between atoms: C10_15  and  C11_16 
       I    between atoms: C11_16  and  N5_18 
    6  A    between atoms: N5_18  and  N6_19 

>  <TORSDO>
F 6

$$$$
../pdbqt/decoy.vina_out.9.pdbqt
 OpenBabel06052021513D

 22 23  0  0  0  0  0  0  0  0999 V2000
  -20.4280   66.4050   24.4670 C   0  0  0  0  0  0  0  0  0  0  0  0
  -21.7380   66.3960   24.7850 N   0  0  0  0  0  0  0  0  0  0  0  0
  -22.1040   65.1160   24.6010 C   0  0  0  0  0  0  0  0  0  0  0  0
  -21.0130   64.3760   24.1770 C   0  0  0  0  0  0  0  0  0  0  0  0
  -19.9510   65.1990   24.0940 N   0  0  0  0  0  0  0  0  0  0  0  0
  -23.4380   64.6470   24.8280 N   0  0  0  0  0  0  0  0  0  0  0  0
  -23.6640   63.6410   24.6900 H   0  0  0  0  0  0  0  0  0  0  0  0
  -24.4260   65.5610   25.2390 N   0  0  0  0  0  0  0  0  0  0  0  0
  -25.3350   66.0310   24.4680 N   0  0  0  0  0  0  0  0  0  0  0  0
  -25.0960   67.2100   23.6240 C   0  0  0  0  0  0  0  0  0  0  0  0
  -26.6460   65.3580   24.4370 C   0  0  0  0  0  0  0  0  0  0  0  0
  -27.1730   65.1270   25.8660 C   0  0  0  0  0  0  0  0  0  0  0  0
  -28.4910   64.3250   25.8640 C   0  0  0  0  0  0  0  0  0  0  0  0
  -29.3430   64.5450   24.5960 C   0  0  0  0  0  0  0  0  0  0  0  0
  -29.1270   65.9400   24.0020 C   0  0  0  0  0  0  0  0  0  0  0  0
  -27.6580   66.1670   23.5860 C   0  0  0  0  0  0  0  0  0  0  0  0
  -20.9290   62.9400   23.8510 C   0  0  0  0  0  0  0  0  0  0  0  0
  -21.9630   62.2210   23.8140 O   0  0  0  0  0  0  0  0  0  0  0  0
  -19.6500   62.3610   23.5710 N   0  0  0  0  0  0  0  0  0  0  0  0
  -19.4950   61.0020   23.2520 N   0  0  0  0  0  0  0  0  0  0  0  0
  -19.8590   60.4430   24.0580 H   0  0  0  0  0  0  0  0  0  0  0  0
  -20.1000   60.8000   22.4230 H   0  0  0  0  0  0  0  0  0  0  0  0
  1  2  1  0  0  0  0
  3  2  1  0  0  0  0
  3  6  1  0  0  0  0
  4  3  2  0  0  0  0
  5  4  1  0  0  0  0
  5  1  2  0  0  0  0
  6  8  1  0  0  0  0
  7  6  1  0  0  0  0
  9  8  1  0  0  0  0
 10  9  1  0  0  0  0
 11  9  1  0  0  0  0
 11 12  1  0  0  0  0
 13 12  1  0  0  0  0
 14 13  1  0  0  0  0
 15 14  1  0  0  0  0
 16 15  1  0  0  0  0
 16 11  1  0  0  0  0
 17  4  1  0  0  0  0
 18 17  2  0  0  0  0
 19 17  1  0  0  0  0
 20 19  1  0  0  0  0
 20 21  1  0  0  0  0
 22 20  1  0  0  0  0
M  END
>  <REMARK>
 VINA RESULT:      -6.8      2.227      3.660
  6 active torsions:
  status: ('A' for Active; 'I' for Inactive)
    1  A    between atoms: C2_3  and  N2_4 
    2  A    between atoms: N2_4  and  N3_6 
    3  A    between atoms: N3_6  and  N4_7 
    4  A    between atoms: N4_7  and  C4_9 
    5  A    between atoms: C10_15  and  C11_16 
       I    between atoms: C11_16  and  N5_18 
    6  A    between atoms: N5_18  and  N6_19 

>  <TORSDO>
F 6

$$$$
../pdbqt/decoy.vina_out.9.pdbqt
 OpenBabel06052021513D

 22 23  0  0  0  0  0  0  0  0999 V2000
  -19.9850   64.8260   23.6210 C   0  0  0  0  0  0  0  0  0  0  0  0
  -20.7920   64.3180   24.5740 N   0  0  0  0  0  0  0  0  0  0  0  0
  -21.0020   65.3550   25.4040 C   0  0  0  0  0  0  0  0  0  0  0  0
  -20.3200   66.4680   24.9390 C   0  0  0  0  0  0  0  0  0  0  0  0
  -19.6770   66.1270   23.8070 N   0  0  0  0  0  0  0  0  0  0  0  0
  -21.8190   65.2610   26.5760 N   0  0  0  0  0  0  0  0  0  0  0  0
  -21.4010   64.9440   27.4740 H   0  0  0  0  0  0  0  0  0  0  0  0
  -23.1800   65.6060   26.4930 N   0  0  0  0  0  0  0  0  0  0  0  0
  -24.0960   64.8180   26.0650 N   0  0  0  0  0  0  0  0  0  0  0  0
  -24.3200   63.4970   26.6670 C   0  0  0  0  0  0  0  0  0  0  0  0
  -24.9400   65.2680   24.9440 C   0  0  0  0  0  0  0  0  0  0  0  0
  -26.3800   65.5360   25.4190 C   0  0  0  0  0  0  0  0  0  0  0  0
  -27.3090   65.9010   24.2430 C   0  0  0  0  0  0  0  0  0  0  0  0
  -26.5810   66.6070   23.0790 C   0  0  0  0  0  0  0  0  0  0  0  0
  -25.3760   67.4160   23.5710 C   0  0  0  0  0  0  0  0  0  0  0  0
  -24.3270   66.5200   24.2640 C   0  0  0  0  0  0  0  0  0  0  0  0
  -20.2510   67.8250   25.5110 C   0  0  0  0  0  0  0  0  0  0  0  0
  -21.2220   68.3110   26.1500 O   0  0  0  0  0  0  0  0  0  0  0  0
  -19.0580   68.5970   25.3350 N   0  0  0  0  0  0  0  0  0  0  0  0
  -18.9210   69.8950   25.8530 N   0  0  0  0  0  0  0  0  0  0  0  0
  -18.3210   70.4390   25.1910 H   0  0  0  0  0  0  0  0  0  0  0  0
  -19.8700   70.3360   25.8600 H   0  0  0  0  0  0  0  0  0  0  0  0
  1  5  2  0  0  0  0
  1  2  1  0  0  0  0
  2  3  1  0  0  0  0
  3  6  1  0  0  0  0
  4  3  2  0  0  0  0
  4 17  1  0  0  0  0
  5  4  1  0  0  0  0
  6  7  1  0  0  0  0
  8  6  1  0  0  0  0
  9  8  1  0  0  0  0
  9 10  1  0  0  0  0
 11 12  1  0  0  0  0
 11  9  1  0  0  0  0
 13 12  1  0  0  0  0
 14 15  1  0  0  0  0
 14 13  1  0  0  0  0
 15 16  1  0  0  0  0
 16 11  1  0  0  0  0
 17 18  2  0  0  0  0
 19 17  1  0  0  0  0
 19 20  1  0  0  0  0
 20 22  1  0  0  0  0
 21 20  1  0  0  0  0
M  END
>  <REMARK>
 VINA RESULT:      -6.7      1.125      1.864
  6 active torsions:
  status: ('A' for Active; 'I' for Inactive)
    1  A    between atoms: C2_3  and  N2_4 
    2  A    between atoms: N2_4  and  N3_6 
    3  A    between atoms: N3_6  and  N4_7 
    4  A    between atoms: N4_7  and  C4_9 
    5  A    between atoms: C10_15  and  C11_16 
       I    between atoms: C11_16  and  N5_18 
    6  A    between atoms: N5_18  and  N6_19 

>  <TORSDO>
F 6

$$$$
../pdbqt/decoy.vina_out.9.pdbqt
 OpenBabel06052021513D

 22 23  0  0  0  0  0  0  0  0999 V2000
  -19.9530   64.5630   24.1090 C   0  0  0  0  0  0  0  0  0  0  0  0
  -21.1930   64.3940   24.6100 N   0  0  0  0  0  0  0  0  0  0  0  0
  -21.5070   65.6030   25.1050 C   0  0  0  0  0  0  0  0  0  0  0  0
  -20.4550   66.4800   24.8950 C   0  0  0  0  0  0  0  0  0  0  0  0
  -19.4710   65.8140   24.2630 N   0  0  0  0  0  0  0  0  0  0  0  0
  -22.7590   65.8830   25.7420 N   0  0  0  0  0  0  0  0  0  0  0  0
  -22.8090   66.6000   26.4950 H   0  0  0  0  0  0  0  0  0  0  0  0
  -23.9080   65.1810   25.3350 N   0  0  0  0  0  0  0  0  0  0  0  0
  -25.0120   65.7400   25.0010 N   0  0  0  0  0  0  0  0  0  0  0  0
  -25.1090   66.6100   23.8210 C   0  0  0  0  0  0  0  0  0  0  0  0
  -26.2040   65.4890   25.8310 C   0  0  0  0  0  0  0  0  0  0  0  0
  -27.4710   65.4270   24.9580 C   0  0  0  0  0  0  0  0  0  0  0  0
  -28.7460   65.2760   25.8150 C   0  0  0  0  0  0  0  0  0  0  0  0
  -28.5090   64.5270   27.1430 C   0  0  0  0  0  0  0  0  0  0  0  0
  -27.3650   63.5130   27.0270 C   0  0  0  0  0  0  0  0  0  0  0  0
  -26.0290   64.1940   26.6650 C   0  0  0  0  0  0  0  0  0  0  0  0
  -20.3400   67.9030   25.2630 C   0  0  0  0  0  0  0  0  0  0  0  0
  -21.3630   68.6280   25.3830 O   0  0  0  0  0  0  0  0  0  0  0  0
  -19.0410   68.4640   25.4850 N   0  0  0  0  0  0  0  0  0  0  0  0
  -18.8550   69.8100   25.8390 N   0  0  0  0  0  0  0  0  0  0  0  0
  -17.8350   70.0240   25.7500 H   0  0  0  0  0  0  0  0  0  0  0  0
  -19.3670   70.3960   25.1400 H   0  0  0  0  0  0  0  0  0  0  0  0
  1  5  2  0  0  0  0
  1  2  1  0  0  0  0
  2  3  1  0  0  0  0
  3  6  1  0  0  0  0
  4  3  2  0  0  0  0
  4 17  1  0  0  0  0
  5  4  1  0  0  0  0
  6  7  1  0  0  0  0
  8  6  1  0  0  0  0
  9  8  1  0  0  0  0
  9 11  1  0  0  0  0
 10  9  1  0  0  0  0
 11 16  1  0  0  0  0
 12 13  1  0  0  0  0
 12 11  1  0  0  0  0
 13 14  1  0  0  0  0
 15 14  1  0  0  0  0
 16 15  1  0  0  0  0
 17 18  2  0  0  0  0
 17 19  1  0  0  0  0
 19 20  1  0  0  0  0
 21 20  1  0  0  0  0
 22 20  1  0  0  0  0
M  END
>  <REMARK>
 VINA RESULT:      -6.7      0.895      1.584
  6 active torsions:
  status: ('A' for Active; 'I' for Inactive)
    1  A    between atoms: C2_3  and  N2_4 
    2  A    between atoms: N2_4  and  N3_6 
    3  A    between atoms: N3_6  and  N4_7 
    4  A    between atoms: N4_7  and  C4_9 
    5  A    between atoms: C10_15  and  C11_16 
       I    between atoms: C11_16  and  N5_18 
    6  A    between atoms: N5_18  and  N6_19 

>  <TORSDO>
F 6

$$$$
../pdbqt/decoy.vina_out.9.pdbqt
 OpenBabel06052021513D

 22 23  0  0  0  0  0  0  0  0999 V2000
  -19.8400   69.2270   26.2090 C   0  0  0  0  0  0  0  0  0  0  0  0
  -21.0480   68.8080   25.7800 N   0  0  0  0  0  0  0  0  0  0  0  0
  -20.7630   67.7590   24.9900 C   0  0  0  0  0  0  0  0  0  0  0  0
  -19.3920   67.5620   24.9550 C   0  0  0  0  0  0  0  0  0  0  0  0
  -18.8110   68.4960   25.7300 N   0  0  0  0  0  0  0  0  0  0  0  0
  -21.7700   66.9980   24.3140 N   0  0  0  0  0  0  0  0  0  0  0  0
  -21.6600   66.7770   23.3030 H   0  0  0  0  0  0  0  0  0  0  0  0
  -22.8940   66.5560   25.0330 N   0  0  0  0  0  0  0  0  0  0  0  0
  -23.5360   65.4770   24.7740 N   0  0  0  0  0  0  0  0  0  0  0  0
  -22.9170   64.1540   24.9410 C   0  0  0  0  0  0  0  0  0  0  0  0
  -24.9280   65.5840   24.3030 C   0  0  0  0  0  0  0  0  0  0  0  0
  -25.9110   65.4920   25.4850 C   0  0  0  0  0  0  0  0  0  0  0  0
  -27.3780   65.4900   25.0070 C   0  0  0  0  0  0  0  0  0  0  0  0
  -27.5970   66.2640   23.6900 C   0  0  0  0  0  0  0  0  0  0  0  0
  -26.5890   67.4080   23.5300 C   0  0  0  0  0  0  0  0  0  0  0  0
  -25.1350   66.8920   23.4980 C   0  0  0  0  0  0  0  0  0  0  0  0
  -18.6160   66.5400   24.2280 C   0  0  0  0  0  0  0  0  0  0  0  0
  -17.5490   66.8390   23.6290 O   0  0  0  0  0  0  0  0  0  0  0  0
  -19.0880   65.1890   24.2080 N   0  0  0  0  0  0  0  0  0  0  0  0
  -18.4000   64.1640   23.5380 N   0  0  0  0  0  0  0  0  0  0  0  0
  -17.8690   64.6010   22.7500 H   0  0  0  0  0  0  0  0  0  0  0  0
  -17.7060   63.7580   24.2060 H   0  0  0  0  0  0  0  0  0  0  0  0
  2  1  1  0  0  0  0
  3  2  1  0  0  0  0
  4  3  2  0  0  0  0
  4  5  1  0  0  0  0
  5  1  2  0  0  0  0
  6  3  1  0  0  0  0
  6  8  1  0  0  0  0
  7  6  1  0  0  0  0
  9 10  1  0  0  0  0
  9  8  1  0  0  0  0
 11  9  1  0  0  0  0
 11 12  1  0  0  0  0
 13 12  1  0  0  0  0
 14 13  1  0  0  0  0
 15 14  1  0  0  0  0
 16 15  1  0  0  0  0
 16 11  1  0  0  0  0
 17  4  1  0  0  0  0
 18 17  2  0  0  0  0
 19 17  1  0  0  0  0
 20 22  1  0  0  0  0
 20 19  1  0  0  0  0
 21 20  1  0  0  0  0
M  END
>  <REMARK>
 VINA RESULT:      -6.7      1.851      3.322
  6 active torsions:
  status: ('A' for Active; 'I' for Inactive)
    1  A    between atoms: C2_3  and  N2_4 
    2  A    between atoms: N2_4  and  N3_6 
    3  A    between atoms: N3_6  and  N4_7 
    4  A    between atoms: N4_7  and  C4_9 
    5  A    between atoms: C10_15  and  C11_16 
       I    between atoms: C11_16  and  N5_18 
    6  A    between atoms: N5_18  and  N6_19 

>  <TORSDO>
F 6

$$$$
../pdbqt/decoy.vina_out.9.pdbqt
 OpenBabel06052021513D

 22 23  0  0  0  0  0  0  0  0999 V2000
  -20.3050   65.9470   25.2100 C   0  0  0  0  0  0  0  0  0  0  0  0
  -21.6460   66.0190   25.3310 N   0  0  0  0  0  0  0  0  0  0  0  0
  -22.0820   64.8870   24.7530 C   0  0  0  0  0  0  0  0  0  0  0  0
  -21.0010   64.1520   24.2940 C   0  0  0  0  0  0  0  0  0  0  0  0
  -19.8750   64.8290   24.5870 N   0  0  0  0  0  0  0  0  0  0  0  0
  -23.4690   64.5460   24.6570 N   0  0  0  0  0  0  0  0  0  0  0  0
  -23.9920   64.7450   23.7800 H   0  0  0  0  0  0  0  0  0  0  0  0
  -24.1040   63.9410   25.7570 N   0  0  0  0  0  0  0  0  0  0  0  0
  -25.2050   64.3530   26.2680 N   0  0  0  0  0  0  0  0  0  0  0  0
  -26.0000   65.4130   25.6330 C   0  0  0  0  0  0  0  0  0  0  0  0
  -25.6730   63.7330   27.5200 C   0  0  0  0  0  0  0  0  0  0  0  0
  -27.1650   63.3650   27.4220 C   0  0  0  0  0  0  0  0  0  0  0  0
  -27.7060   62.8160   28.7590 C   0  0  0  0  0  0  0  0  0  0  0  0
  -26.6360   62.0920   29.6040 C   0  0  0  0  0  0  0  0  0  0  0  0
  -25.5580   61.4480   28.7250 C   0  0  0  0  0  0  0  0  0  0  0  0
  -24.8090   62.4950   27.8750 C   0  0  0  0  0  0  0  0  0  0  0  0
  -20.9850   62.8510   23.5990 C   0  0  0  0  0  0  0  0  0  0  0  0
  -22.0110   62.4150   23.0140 O   0  0  0  0  0  0  0  0  0  0  0  0
  -19.7800   62.0780   23.5920 N   0  0  0  0  0  0  0  0  0  0  0  0
  -19.6910   60.8320   22.9500 N   0  0  0  0  0  0  0  0  0  0  0  0
  -20.1470   60.1230   23.5690 H   0  0  0  0  0  0  0  0  0  0  0  0
  -20.2470   60.8910   22.0660 H   0  0  0  0  0  0  0  0  0  0  0  0
  1  2  1  0  0  0  0
  3  2  1  0  0  0  0
  4  5  1  0  0  0  0
  4  3  2  0  0  0  0
  5  1  2  0  0  0  0
  6  3  1  0  0  0  0
  6  8  1  0  0  0  0
  7  6  1  0  0  0  0
  8  9  1  0  0  0  0
  9 11  1  0  0  0  0
 10  9  1  0  0  0  0
 11 16  1  0  0  0  0
 12 11  1  0  0  0  0
 12 13  1  0  0  0  0
 13 14  1  0  0  0  0
 15 14  1  0  0  0  0
 16 15  1  0  0  0  0
 17  4  1  0  0  0  0
 18 17  2  0  0  0  0
 19 17  1  0  0  0  0
 20 21  1  0  0  0  0
 20 19  1  0  0  0  0
 22 20  1  0  0  0  0
M  END
>  <REMARK>
 VINA RESULT:      -6.6      2.669      4.533
  6 active torsions:
  status: ('A' for Active; 'I' for Inactive)
    1  A    between atoms: C2_3  and  N2_4 
    2  A    between atoms: N2_4  and  N3_6 
    3  A    between atoms: N3_6  and  N4_7 
    4  A    between atoms: N4_7  and  C4_9 
    5  A    between atoms: C10_15  and  C11_16 
       I    between atoms: C11_16  and  N5_18 
    6  A    between atoms: N5_18  and  N6_19 

>  <TORSDO>
F 6

$$$$
../pdbqt/decoy.vina_out.9.pdbqt
 OpenBabel06052021513D

 22 23  0  0  0  0  0  0  0  0999 V2000
  -19.8000   69.1090   26.2330 C   0  0  0  0  0  0  0  0  0  0  0  0
  -21.0730   68.8180   25.8950 N   0  0  0  0  0  0  0  0  0  0  0  0
  -20.9490   67.8220   25.0010 C   0  0  0  0  0  0  0  0  0  0  0  0
  -19.6080   67.5290   24.8150 C   0  0  0  0  0  0  0  0  0  0  0  0
  -18.8830   68.3490   25.5990 N   0  0  0  0  0  0  0  0  0  0  0  0
  -22.0720   67.1970   24.3710 N   0  0  0  0  0  0  0  0  0  0  0  0
  -22.2940   67.4100   23.3780 H   0  0  0  0  0  0  0  0  0  0  0  0
  -22.8590   66.2960   25.1110 N   0  0  0  0  0  0  0  0  0  0  0  0
  -24.1360   66.2150   25.0210 N   0  0  0  0  0  0  0  0  0  0  0  0
  -24.8690   66.8060   23.8930 C   0  0  0  0  0  0  0  0  0  0  0  0
  -24.8690   65.5040   26.0840 C   0  0  0  0  0  0  0  0  0  0  0  0
  -26.3020   65.1710   25.6270 C   0  0  0  0  0  0  0  0  0  0  0  0
  -27.1260   64.5260   26.7610 C   0  0  0  0  0  0  0  0  0  0  0  0
  -26.2700   63.7180   27.7590 C   0  0  0  0  0  0  0  0  0  0  0  0
  -25.0240   63.1280   27.0910 C   0  0  0  0  0  0  0  0  0  0  0  0
  -24.1050   64.2270   26.5170 C   0  0  0  0  0  0  0  0  0  0  0  0
  -18.9870   66.5190   23.9370 C   0  0  0  0  0  0  0  0  0  0  0  0
  -19.5810   65.4430   23.6640 O   0  0  0  0  0  0  0  0  0  0  0  0
  -17.6890   66.7730   23.3900 N   0  0  0  0  0  0  0  0  0  0  0  0
  -17.0380   65.8580   22.5460 N   0  0  0  0  0  0  0  0  0  0  0  0
  -17.4530   65.9570   21.5910 H   0  0  0  0  0  0  0  0  0  0  0  0
  -16.0320   66.1390   22.4890 H   0  0  0  0  0  0  0  0  0  0  0  0
  2  1  1  0  0  0  0
  3  2  1  0  0  0  0
  4  3  2  0  0  0  0
  4  5  1  0  0  0  0
  5  1  2  0  0  0  0
  6  3  1  0  0  0  0
  6  8  1  0  0  0  0
  7  6  1  0  0  0  0
  9  8  1  0  0  0  0
  9 11  1  0  0  0  0
 10  9  1  0  0  0  0
 11 16  1  0  0  0  0
 12 11  1  0  0  0  0
 12 13  1  0  0  0  0
 13 14  1  0  0  0  0
 15 14  1  0  0  0  0
 16 15  1  0  0  0  0
 17  4  1  0  0  0  0
 18 17  2  0  0  0  0
 19 17  1  0  0  0  0
 20 19  1  0  0  0  0
 21 20  1  0  0  0  0
 22 20  1  0  0  0  0
M  END
>  <REMARK>
 VINA RESULT:      -6.6      2.053      3.483
  6 active torsions:
  status: ('A' for Active; 'I' for Inactive)
    1  A    between atoms: C2_3  and  N2_4 
    2  A    between atoms: N2_4  and  N3_6 
    3  A    between atoms: N3_6  and  N4_7 
    4  A    between atoms: N4_7  and  C4_9 
    5  A    between atoms: C10_15  and  C11_16 
       I    between atoms: C11_16  and  N5_18 
    6  A    between atoms: N5_18  and  N6_19 

>  <TORSDO>
F 6

$$$$
