../pdbqt/decoy.vina_out.12.pdbqt
 OpenBabel06052021513D

 22 23  0  0  0  0  0  0  0  0999 V2000
  -24.8310   65.6840   25.4250 C   0  0  0  0  0  0  0  0  0  0  0  0
  -25.9510   65.0660   25.9960 C   0  0  0  0  0  0  0  0  0  0  0  0
  -25.7740   63.9510   26.8300 C   0  0  0  0  0  0  0  0  0  0  0  0
  -26.8270   63.3430   27.4550 N   0  0  0  0  0  0  0  0  0  0  0  0
  -27.8000   63.7020   27.3440 H   0  0  0  0  0  0  0  0  0  0  0  0
  -26.6500   62.2610   28.2580 C   0  0  0  0  0  0  0  0  0  0  0  0
  -25.3800   61.7300   28.4830 C   0  0  0  0  0  0  0  0  0  0  0  0
  -24.2590   62.3100   27.8900 C   0  0  0  0  0  0  0  0  0  0  0  0
  -24.3990   63.4350   27.0590 C   0  0  0  0  0  0  0  0  0  0  0  0
  -23.2950   64.0580   26.4360 C   0  0  0  0  0  0  0  0  0  0  0  0
  -23.5170   65.2290   25.6570 C   0  0  0  0  0  0  0  0  0  0  0  0
  -27.2680   65.5550   25.6860 N   0  0  0  0  0  0  0  0  0  0  0  0
  -27.9230   65.7660   26.4720 H   0  0  0  0  0  0  0  0  0  0  0  0
  -27.7210   65.7880   24.3450 C   0  0  0  0  0  0  0  0  0  0  0  0
  -26.9130   65.7380   23.3770 O   0  0  0  0  0  0  0  0  0  0  0  0
  -29.1440   66.1690   24.0940 C   0  0  0  0  0  0  0  0  0  0  0  0
  -22.4210   65.9560   25.1610 O   0  0  0  0  0  0  0  0  0  0  0  0
  -21.8550   67.1140   25.7680 C   0  0  0  0  0  0  0  0  0  0  0  0
  -22.1060   63.5460   26.6340 N   0  0  0  0  0  0  0  0  0  0  0  0
  -21.2850   62.7660   25.7550 C   0  0  0  0  0  0  0  0  0  0  0  0
  -21.7800   61.8150   25.0900 O   0  0  0  0  0  0  0  0  0  0  0  0
  -19.8050   62.9520   25.7770 C   0  0  0  0  0  0  0  0  0  0  0  0
  1 11  2  0  0  0  0
  1  2  1  0  0  0  0
  2  3  2  0  0  0  0
  3  9  1  0  0  0  0
  3  4  1  0  0  0  0
  4  6  1  0  0  0  0
  5  4  1  0  0  0  0
  6  7  2  0  0  0  0
  8  7  1  0  0  0  0
  9  8  1  0  0  0  0
 10 19  1  0  0  0  0
 10  9  2  0  0  0  0
 11 10  1  0  0  0  0
 12  2  1  0  0  0  0
 12 13  1  0  0  0  0
 14 12  1  0  0  0  0
 15 14  2  0  0  0  0
 16 14  1  0  0  0  0
 17 11  1  0  0  0  0
 17 18  1  0  0  0  0
 20 22  1  0  0  0  0
 20 19  1  0  0  0  0
 21 20  2  0  0  0  0
M  END
>  <MODEL>
1

>  <REMARK>
 VINA RESULT:      -7.5      0.000      0.000
  3 active torsions:
  status: ('A' for Active; 'I' for Inactive)
    1  A    between atoms: C2_2  and  N1_3 
       I    between atoms: N1_3  and  C3_5 
    2  A    between atoms: C10_15  and  N3_16 
       I    between atoms: N3_16  and  C11_17 
    3  A    between atoms: C13_20  and  O3_21 

>  <TORSDO>
F 3

$$$$
../pdbqt/decoy.vina_out.12.pdbqt
 OpenBabel06052021513D

 22 23  0  0  0  0  0  0  0  0999 V2000
  -23.6430   66.3380   24.7170 C   0  0  0  0  0  0  0  0  0  0  0  0
  -22.9520   65.3660   25.4530 C   0  0  0  0  0  0  0  0  0  0  0  0
  -23.6760   64.4300   26.2090 C   0  0  0  0  0  0  0  0  0  0  0  0
  -23.0560   63.4290   26.9020 N   0  0  0  0  0  0  0  0  0  0  0  0
  -22.0190   63.3180   26.8780 H   0  0  0  0  0  0  0  0  0  0  0  0
  -23.7610   62.5280   27.6360 C   0  0  0  0  0  0  0  0  0  0  0  0
  -25.1530   62.5860   27.7050 C   0  0  0  0  0  0  0  0  0  0  0  0
  -25.8520   63.5710   27.0100 C   0  0  0  0  0  0  0  0  0  0  0  0
  -25.1600   64.5180   26.2330 C   0  0  0  0  0  0  0  0  0  0  0  0
  -25.8220   65.5350   25.5110 C   0  0  0  0  0  0  0  0  0  0  0  0
  -25.0510   66.4160   24.7020 C   0  0  0  0  0  0  0  0  0  0  0  0
  -21.5140   65.3680   25.4590 N   0  0  0  0  0  0  0  0  0  0  0  0
  -21.0160   65.9340   26.1820 H   0  0  0  0  0  0  0  0  0  0  0  0
  -20.7270   64.6100   24.5290 C   0  0  0  0  0  0  0  0  0  0  0  0
  -21.2710   63.7640   23.7690 O   0  0  0  0  0  0  0  0  0  0  0  0
  -19.2410   64.7650   24.5100 C   0  0  0  0  0  0  0  0  0  0  0  0
  -25.6970   67.3310   23.8530 O   0  0  0  0  0  0  0  0  0  0  0  0
  -25.9670   67.1230   22.4690 C   0  0  0  0  0  0  0  0  0  0  0  0
  -27.1280   65.5980   25.5930 N   0  0  0  0  0  0  0  0  0  0  0  0
  -28.1300   64.9720   24.7810 C   0  0  0  0  0  0  0  0  0  0  0  0
  -28.0310   64.9750   23.5240 O   0  0  0  0  0  0  0  0  0  0  0  0
  -29.3910   64.4910   25.4160 C   0  0  0  0  0  0  0  0  0  0  0  0
  1  2  1  0  0  0  0
  2 12  1  0  0  0  0
  2  3  2  0  0  0  0
  3  9  1  0  0  0  0
  3  4  1  0  0  0  0
  4  6  1  0  0  0  0
  5  4  1  0  0  0  0
  6  7  2  0  0  0  0
  8  7  1  0  0  0  0
  9  8  1  0  0  0  0
 10 19  1  0  0  0  0
 10  9  2  0  0  0  0
 11  1  2  0  0  0  0
 11 10  1  0  0  0  0
 12 13  1  0  0  0  0
 14 12  1  0  0  0  0
 15 14  2  0  0  0  0
 16 14  1  0  0  0  0
 17 11  1  0  0  0  0
 18 17  1  0  0  0  0
 20 22  1  0  0  0  0
 20 19  1  0  0  0  0
 21 20  2  0  0  0  0
M  END
>  <REMARK>
 VINA RESULT:      -7.2      1.619      5.262
  3 active torsions:
  status: ('A' for Active; 'I' for Inactive)
    1  A    between atoms: C2_2  and  N1_3 
       I    between atoms: N1_3  and  C3_5 
    2  A    between atoms: C10_15  and  N3_16 
       I    between atoms: N3_16  and  C11_17 
    3  A    between atoms: C13_20  and  O3_21 

>  <TORSDO>
F 3

$$$$
../pdbqt/decoy.vina_out.12.pdbqt
 OpenBabel06052021513D

 22 23  0  0  0  0  0  0  0  0999 V2000
  -24.7030   63.9260   26.6330 C   0  0  0  0  0  0  0  0  0  0  0  0
  -25.9800   64.3860   26.2850 C   0  0  0  0  0  0  0  0  0  0  0  0
  -26.1100   65.3930   25.3160 C   0  0  0  0  0  0  0  0  0  0  0  0
  -27.3320   65.8410   24.9000 N   0  0  0  0  0  0  0  0  0  0  0  0
  -28.2140   65.4340   25.2810 H   0  0  0  0  0  0  0  0  0  0  0  0
  -27.4520   66.8200   23.9640 C   0  0  0  0  0  0  0  0  0  0  0  0
  -26.3260   67.4030   23.3830 C   0  0  0  0  0  0  0  0  0  0  0  0
  -25.0480   66.9830   23.7480 C   0  0  0  0  0  0  0  0  0  0  0  0
  -24.8810   65.9680   24.7070 C   0  0  0  0  0  0  0  0  0  0  0  0
  -23.6080   65.5080   25.1100 C   0  0  0  0  0  0  0  0  0  0  0  0
  -23.5290   64.4360   26.0430 C   0  0  0  0  0  0  0  0  0  0  0  0
  -27.1350   63.8530   26.9550 N   0  0  0  0  0  0  0  0  0  0  0  0
  -27.8910   63.4150   26.3810 H   0  0  0  0  0  0  0  0  0  0  0  0
  -27.2930   63.8730   28.3810 C   0  0  0  0  0  0  0  0  0  0  0  0
  -26.3330   64.2070   29.1270 O   0  0  0  0  0  0  0  0  0  0  0  0
  -28.5780   63.4210   28.9960 C   0  0  0  0  0  0  0  0  0  0  0  0
  -22.2830   63.8570   26.3380 O   0  0  0  0  0  0  0  0  0  0  0  0
  -21.7270   62.7190   25.6850 C   0  0  0  0  0  0  0  0  0  0  0  0
  -22.5530   66.0710   24.5770 N   0  0  0  0  0  0  0  0  0  0  0  0
  -21.5100   66.8380   25.1940 C   0  0  0  0  0  0  0  0  0  0  0  0
  -21.7870   67.7380   26.0330 O   0  0  0  0  0  0  0  0  0  0  0  0
  -20.1100   66.7040   24.6970 C   0  0  0  0  0  0  0  0  0  0  0  0
  2  1  1  0  0  0  0
  2 12  1  0  0  0  0
  3  2  2  0  0  0  0
  4  5  1  0  0  0  0
  4  3  1  0  0  0  0
  6  4  1  0  0  0  0
  7  8  1  0  0  0  0
  7  6  2  0  0  0  0
  8  9  1  0  0  0  0
  9 10  2  0  0  0  0
  9  3  1  0  0  0  0
 10 11  1  0  0  0  0
 11 17  1  0  0  0  0
 11  1  2  0  0  0  0
 12 14  1  0  0  0  0
 13 12  1  0  0  0  0
 14 16  1  0  0  0  0
 14 15  2  0  0  0  0
 18 17  1  0  0  0  0
 19 10  1  0  0  0  0
 19 20  1  0  0  0  0
 20 21  2  0  0  0  0
 22 20  1  0  0  0  0
M  END
>  <REMARK>
 VINA RESULT:      -7.2      2.054      4.328
  3 active torsions:
  status: ('A' for Active; 'I' for Inactive)
    1  A    between atoms: C2_2  and  N1_3 
       I    between atoms: N1_3  and  C3_5 
    2  A    between atoms: C10_15  and  N3_16 
       I    between atoms: N3_16  and  C11_17 
    3  A    between atoms: C13_20  and  O3_21 

>  <TORSDO>
F 3

$$$$
../pdbqt/decoy.vina_out.12.pdbqt
 OpenBabel06052021513D

 22 23  0  0  0  0  0  0  0  0999 V2000
  -22.4250   64.6990   26.6980 C   0  0  0  0  0  0  0  0  0  0  0  0
  -22.5330   65.6460   25.6720 C   0  0  0  0  0  0  0  0  0  0  0  0
  -23.7970   65.9460   25.1400 C   0  0  0  0  0  0  0  0  0  0  0  0
  -23.9660   66.9000   24.1760 N   0  0  0  0  0  0  0  0  0  0  0  0
  -23.1570   67.4500   23.8140 H   0  0  0  0  0  0  0  0  0  0  0  0
  -25.1920   67.1830   23.6610 C   0  0  0  0  0  0  0  0  0  0  0  0
  -26.3320   66.5140   24.1050 C   0  0  0  0  0  0  0  0  0  0  0  0
  -26.2360   65.5400   25.0980 C   0  0  0  0  0  0  0  0  0  0  0  0
  -24.9870   65.2230   25.6610 C   0  0  0  0  0  0  0  0  0  0  0  0
  -24.8370   64.2450   26.6690 C   0  0  0  0  0  0  0  0  0  0  0  0
  -23.5460   64.0270   27.2270 C   0  0  0  0  0  0  0  0  0  0  0  0
  -21.3450   66.2650   25.1480 N   0  0  0  0  0  0  0  0  0  0  0  0
  -21.0930   67.2250   25.4770 H   0  0  0  0  0  0  0  0  0  0  0  0
  -20.4750   65.6200   24.2080 C   0  0  0  0  0  0  0  0  0  0  0  0
  -20.6240   64.3990   23.9300 O   0  0  0  0  0  0  0  0  0  0  0  0
  -19.3340   66.3760   23.6090 C   0  0  0  0  0  0  0  0  0  0  0  0
  -23.4000   63.1770   28.3370 O   0  0  0  0  0  0  0  0  0  0  0  0
  -22.8720   63.5580   29.6040 C   0  0  0  0  0  0  0  0  0  0  0  0
  -25.9070   63.6040   27.0690 N   0  0  0  0  0  0  0  0  0  0  0  0
  -26.8150   63.9100   28.1370 C   0  0  0  0  0  0  0  0  0  0  0  0
  -26.3800   64.2550   29.2690 O   0  0  0  0  0  0  0  0  0  0  0  0
  -28.2690   63.6280   27.9650 C   0  0  0  0  0  0  0  0  0  0  0  0
  1 11  2  0  0  0  0
  2  1  1  0  0  0  0
  3  9  1  0  0  0  0
  3  2  2  0  0  0  0
  4  3  1  0  0  0  0
  5  4  1  0  0  0  0
  6  7  2  0  0  0  0
  6  4  1  0  0  0  0
  7  8  1  0  0  0  0
  8  9  1  0  0  0  0
  9 10  2  0  0  0  0
 10 19  1  0  0  0  0
 10 11  1  0  0  0  0
 11 17  1  0  0  0  0
 12 13  1  0  0  0  0
 12  2  1  0  0  0  0
 14 12  1  0  0  0  0
 15 14  2  0  0  0  0
 16 14  1  0  0  0  0
 17 18  1  0  0  0  0
 19 20  1  0  0  0  0
 20 21  2  0  0  0  0
 22 20  1  0  0  0  0
M  END
>  <REMARK>
 VINA RESULT:      -7.1      2.550      5.633
  3 active torsions:
  status: ('A' for Active; 'I' for Inactive)
    1  A    between atoms: C2_2  and  N1_3 
       I    between atoms: N1_3  and  C3_5 
    2  A    between atoms: C10_15  and  N3_16 
       I    between atoms: N3_16  and  C11_17 
    3  A    between atoms: C13_20  and  O3_21 

>  <TORSDO>
F 3

$$$$
../pdbqt/decoy.vina_out.12.pdbqt
 OpenBabel06052021513D

 22 23  0  0  0  0  0  0  0  0999 V2000
  -21.9550   67.0100   25.4920 C   0  0  0  0  0  0  0  0  0  0  0  0
  -22.5170   65.7300   25.3980 C   0  0  0  0  0  0  0  0  0  0  0  0
  -21.8390   64.7300   24.6840 C   0  0  0  0  0  0  0  0  0  0  0  0
  -22.3140   63.4510   24.6060 N   0  0  0  0  0  0  0  0  0  0  0  0
  -23.1940   63.1720   25.0920 H   0  0  0  0  0  0  0  0  0  0  0  0
  -21.6550   62.4870   23.9090 C   0  0  0  0  0  0  0  0  0  0  0  0
  -20.4590   62.7660   23.2490 C   0  0  0  0  0  0  0  0  0  0  0  0
  -19.9070   64.0450   23.3000 C   0  0  0  0  0  0  0  0  0  0  0  0
  -20.5540   65.0680   24.0170 C   0  0  0  0  0  0  0  0  0  0  0  0
  -20.0360   66.3790   24.0990 C   0  0  0  0  0  0  0  0  0  0  0  0
  -20.7220   67.3400   24.8940 C   0  0  0  0  0  0  0  0  0  0  0  0
  -23.7980   65.4700   25.9970 N   0  0  0  0  0  0  0  0  0  0  0  0
  -23.8350   65.1990   27.0060 H   0  0  0  0  0  0  0  0  0  0  0  0
  -25.0360   65.5850   25.2810 C   0  0  0  0  0  0  0  0  0  0  0  0
  -25.0630   66.0950   24.1270 O   0  0  0  0  0  0  0  0  0  0  0  0
  -26.3160   65.1710   25.9310 C   0  0  0  0  0  0  0  0  0  0  0  0
  -20.1440   68.6010   25.1200 O   0  0  0  0  0  0  0  0  0  0  0  0
  -19.9490   69.2030   26.3960 C   0  0  0  0  0  0  0  0  0  0  0  0
  -18.9220   66.6420   23.4630 N   0  0  0  0  0  0  0  0  0  0  0  0
  -17.5620   66.5190   23.9020 C   0  0  0  0  0  0  0  0  0  0  0  0
  -17.2170   66.9330   25.0420 O   0  0  0  0  0  0  0  0  0  0  0  0
  -16.5160   66.0830   22.9330 C   0  0  0  0  0  0  0  0  0  0  0  0
  2  1  1  0  0  0  0
  2 12  1  0  0  0  0
  3  2  2  0  0  0  0
  4  3  1  0  0  0  0
  4  5  1  0  0  0  0
  6  4  1  0  0  0  0
  7  8  1  0  0  0  0
  7  6  2  0  0  0  0
  8  9  1  0  0  0  0
  9 10  2  0  0  0  0
  9  3  1  0  0  0  0
 10 11  1  0  0  0  0
 11 17  1  0  0  0  0
 11  1  2  0  0  0  0
 12 13  1  0  0  0  0
 14 16  1  0  0  0  0
 14 12  1  0  0  0  0
 15 14  2  0  0  0  0
 17 18  1  0  0  0  0
 19 20  1  0  0  0  0
 19 10  1  0  0  0  0
 20 21  2  0  0  0  0
 22 20  1  0  0  0  0
M  END
>  <REMARK>
 VINA RESULT:      -7.0      3.033      4.830
  3 active torsions:
  status: ('A' for Active; 'I' for Inactive)
    1  A    between atoms: C2_2  and  N1_3 
       I    between atoms: N1_3  and  C3_5 
    2  A    between atoms: C10_15  and  N3_16 
       I    between atoms: N3_16  and  C11_17 
    3  A    between atoms: C13_20  and  O3_21 

>  <TORSDO>
F 3

$$$$
../pdbqt/decoy.vina_out.12.pdbqt
 OpenBabel06052021513D

 22 23  0  0  0  0  0  0  0  0999 V2000
  -23.7690   64.7010   26.3820 C   0  0  0  0  0  0  0  0  0  0  0  0
  -23.9370   63.6540   27.2990 C   0  0  0  0  0  0  0  0  0  0  0  0
  -25.2340   63.2340   27.6360 C   0  0  0  0  0  0  0  0  0  0  0  0
  -25.4540   62.1850   28.4820 N   0  0  0  0  0  0  0  0  0  0  0  0
  -24.6600   61.6480   28.8940 H   0  0  0  0  0  0  0  0  0  0  0  0
  -26.7120   61.7850   28.8090 C   0  0  0  0  0  0  0  0  0  0  0  0
  -27.8320   62.4290   28.2840 C   0  0  0  0  0  0  0  0  0  0  0  0
  -27.6810   63.4980   27.4020 C   0  0  0  0  0  0  0  0  0  0  0  0
  -26.3970   63.9370   27.0330 C   0  0  0  0  0  0  0  0  0  0  0  0
  -26.1910   65.0140   26.1430 C   0  0  0  0  0  0  0  0  0  0  0  0
  -24.8600   65.3570   25.7750 C   0  0  0  0  0  0  0  0  0  0  0  0
  -22.7830   63.0550   27.9130 N   0  0  0  0  0  0  0  0  0  0  0  0
  -22.3010   62.2720   27.4160 H   0  0  0  0  0  0  0  0  0  0  0  0
  -22.2480   63.4940   29.1690 C   0  0  0  0  0  0  0  0  0  0  0  0
  -22.6690   64.5520   29.7110 O   0  0  0  0  0  0  0  0  0  0  0  0
  -21.1290   62.7370   29.8080 C   0  0  0  0  0  0  0  0  0  0  0  0
  -24.6360   66.3160   24.7730 O   0  0  0  0  0  0  0  0  0  0  0  0
  -23.3690   66.8670   24.4260 C   0  0  0  0  0  0  0  0  0  0  0  0
  -27.2450   65.6290   25.6670 N   0  0  0  0  0  0  0  0  0  0  0  0
  -27.8490   65.5460   24.3690 C   0  0  0  0  0  0  0  0  0  0  0  0
  -27.1370   65.5810   23.3280 O   0  0  0  0  0  0  0  0  0  0  0  0
  -29.3330   65.6190   24.2450 C   0  0  0  0  0  0  0  0  0  0  0  0
  1  2  1  0  0  0  0
  2  3  2  0  0  0  0
  2 12  1  0  0  0  0
  3  4  1  0  0  0  0
  4  6  1  0  0  0  0
  4  5  1  0  0  0  0
  7  6  2  0  0  0  0
  8  7  1  0  0  0  0
  9  8  1  0  0  0  0
  9  3  1  0  0  0  0
 10  9  2  0  0  0  0
 11 10  1  0  0  0  0
 11  1  2  0  0  0  0
 12 14  1  0  0  0  0
 13 12  1  0  0  0  0
 14 15  2  0  0  0  0
 14 16  1  0  0  0  0
 17 11  1  0  0  0  0
 18 17  1  0  0  0  0
 19 10  1  0  0  0  0
 20 19  1  0  0  0  0
 21 20  2  0  0  0  0
 22 20  1  0  0  0  0
M  END
>  <REMARK>
 VINA RESULT:      -6.9      1.998      5.246
  3 active torsions:
  status: ('A' for Active; 'I' for Inactive)
    1  A    between atoms: C2_2  and  N1_3 
       I    between atoms: N1_3  and  C3_5 
    2  A    between atoms: C10_15  and  N3_16 
       I    between atoms: N3_16  and  C11_17 
    3  A    between atoms: C13_20  and  O3_21 

>  <TORSDO>
F 3

$$$$
../pdbqt/decoy.vina_out.12.pdbqt
 OpenBabel06052021513D

 22 23  0  0  0  0  0  0  0  0999 V2000
  -19.7960   66.9000   24.7150 C   0  0  0  0  0  0  0  0  0  0  0  0
  -19.3400   65.7470   24.0630 C   0  0  0  0  0  0  0  0  0  0  0  0
  -20.2030   64.6490   23.9210 C   0  0  0  0  0  0  0  0  0  0  0  0
  -19.8290   63.5200   23.2480 N   0  0  0  0  0  0  0  0  0  0  0  0
  -18.8890   63.4450   22.8010 H   0  0  0  0  0  0  0  0  0  0  0  0
  -20.6670   62.4570   23.1170 C   0  0  0  0  0  0  0  0  0  0  0  0
  -21.9510   62.4810   23.6600 C   0  0  0  0  0  0  0  0  0  0  0  0
  -22.4050   63.6070   24.3460 C   0  0  0  0  0  0  0  0  0  0  0  0
  -21.5710   64.7290   24.4970 C   0  0  0  0  0  0  0  0  0  0  0  0
  -21.9840   65.8930   25.1820 C   0  0  0  0  0  0  0  0  0  0  0  0
  -21.1010   67.0070   25.2380 C   0  0  0  0  0  0  0  0  0  0  0  0
  -17.9840   65.6870   23.5880 N   0  0  0  0  0  0  0  0  0  0  0  0
  -17.2850   65.1350   24.1350 H   0  0  0  0  0  0  0  0  0  0  0  0
  -17.5460   66.3350   22.3850 C   0  0  0  0  0  0  0  0  0  0  0  0
  -18.3830   66.8460   21.5920 O   0  0  0  0  0  0  0  0  0  0  0  0
  -16.0960   66.3400   22.0270 C   0  0  0  0  0  0  0  0  0  0  0  0
  -21.5480   68.2280   25.7740 O   0  0  0  0  0  0  0  0  0  0  0  0
  -20.9850   68.8880   26.9030 C   0  0  0  0  0  0  0  0  0  0  0  0
  -23.1840   65.9050   25.7080 N   0  0  0  0  0  0  0  0  0  0  0  0
  -24.4610   66.0730   25.0780 C   0  0  0  0  0  0  0  0  0  0  0  0
  -24.6370   66.9760   24.2150 O   0  0  0  0  0  0  0  0  0  0  0  0
  -25.6360   65.3080   25.5870 C   0  0  0  0  0  0  0  0  0  0  0  0
  1 11  2  0  0  0  0
  2  1  1  0  0  0  0
  3  2  2  0  0  0  0
  3  9  1  0  0  0  0
  4  3  1  0  0  0  0
  5  4  1  0  0  0  0
  6  4  1  0  0  0  0
  6  7  2  0  0  0  0
  7  8  1  0  0  0  0
  8  9  1  0  0  0  0
  9 10  2  0  0  0  0
 10 11  1  0  0  0  0
 10 19  1  0  0  0  0
 11 17  1  0  0  0  0
 12  2  1  0  0  0  0
 12 13  1  0  0  0  0
 14 12  1  0  0  0  0
 15 14  2  0  0  0  0
 16 14  1  0  0  0  0
 17 18  1  0  0  0  0
 20 22  1  0  0  0  0
 20 19  1  0  0  0  0
 21 20  2  0  0  0  0
M  END
>  <REMARK>
 VINA RESULT:      -6.9      3.306      6.690
  3 active torsions:
  status: ('A' for Active; 'I' for Inactive)
    1  A    between atoms: C2_2  and  N1_3 
       I    between atoms: N1_3  and  C3_5 
    2  A    between atoms: C10_15  and  N3_16 
       I    between atoms: N3_16  and  C11_17 
    3  A    between atoms: C13_20  and  O3_21 

>  <TORSDO>
F 3

$$$$
../pdbqt/decoy.vina_out.12.pdbqt
 OpenBabel06052021513D

 22 23  0  0  0  0  0  0  0  0999 V2000
  -20.0970   64.7820   24.1280 C   0  0  0  0  0  0  0  0  0  0  0  0
  -19.2200   65.8470   24.3740 C   0  0  0  0  0  0  0  0  0  0  0  0
  -19.6590   66.9380   25.1400 C   0  0  0  0  0  0  0  0  0  0  0  0
  -18.8310   67.9780   25.4560 N   0  0  0  0  0  0  0  0  0  0  0  0
  -17.8340   67.9850   25.1490 H   0  0  0  0  0  0  0  0  0  0  0  0
  -19.2620   69.0350   26.1950 C   0  0  0  0  0  0  0  0  0  0  0  0
  -20.5730   69.0950   26.6680 C   0  0  0  0  0  0  0  0  0  0  0  0
  -21.4680   68.0620   26.3980 C   0  0  0  0  0  0  0  0  0  0  0  0
  -21.0580   66.9480   25.6440 C   0  0  0  0  0  0  0  0  0  0  0  0
  -21.9270   65.8750   25.3430 C   0  0  0  0  0  0  0  0  0  0  0  0
  -21.4160   64.7580   24.6250 C   0  0  0  0  0  0  0  0  0  0  0  0
  -17.9000   65.8280   23.8040 N   0  0  0  0  0  0  0  0  0  0  0  0
  -17.1330   65.3510   24.3310 H   0  0  0  0  0  0  0  0  0  0  0  0
  -17.5870   66.4160   22.5340 C   0  0  0  0  0  0  0  0  0  0  0  0
  -18.5060   66.8270   21.7740 O   0  0  0  0  0  0  0  0  0  0  0  0
  -16.1690   66.4740   22.0680 C   0  0  0  0  0  0  0  0  0  0  0  0
  -22.2130   63.6130   24.4530 O   0  0  0  0  0  0  0  0  0  0  0  0
  -21.9760   62.5770   23.5040 C   0  0  0  0  0  0  0  0  0  0  0  0
  -23.1620   65.9450   25.7730 N   0  0  0  0  0  0  0  0  0  0  0  0
  -24.3850   66.0760   25.0360 C   0  0  0  0  0  0  0  0  0  0  0  0
  -24.4780   66.9070   24.0920 O   0  0  0  0  0  0  0  0  0  0  0  0
  -25.6080   65.3690   25.5140 C   0  0  0  0  0  0  0  0  0  0  0  0
  1  2  1  0  0  0  0
  1 11  2  0  0  0  0
  2  3  2  0  0  0  0
  3  4  1  0  0  0  0
  3  9  1  0  0  0  0
  4  6  1  0  0  0  0
  5  4  1  0  0  0  0
  6  7  2  0  0  0  0
  8  7  1  0  0  0  0
  9  8  1  0  0  0  0
 10  9  2  0  0  0  0
 10 19  1  0  0  0  0
 11 10  1  0  0  0  0
 12 13  1  0  0  0  0
 12  2  1  0  0  0  0
 14 12  1  0  0  0  0
 15 14  2  0  0  0  0
 16 14  1  0  0  0  0
 17 11  1  0  0  0  0
 18 17  1  0  0  0  0
 20 22  1  0  0  0  0
 20 19  1  0  0  0  0
 21 20  2  0  0  0  0
M  END
>  <REMARK>
 VINA RESULT:      -6.9      3.386      7.270
  3 active torsions:
  status: ('A' for Active; 'I' for Inactive)
    1  A    between atoms: C2_2  and  N1_3 
       I    between atoms: N1_3  and  C3_5 
    2  A    between atoms: C10_15  and  N3_16 
       I    between atoms: N3_16  and  C11_17 
    3  A    between atoms: C13_20  and  O3_21 

>  <TORSDO>
F 3

$$$$
../pdbqt/decoy.vina_out.12.pdbqt
 OpenBabel06052021513D

 22 23  0  0  0  0  0  0  0  0999 V2000
  -26.8480   63.7730   27.1990 C   0  0  0  0  0  0  0  0  0  0  0  0
  -26.9340   64.7780   26.2260 C   0  0  0  0  0  0  0  0  0  0  0  0
  -25.7570   65.3470   25.7170 C   0  0  0  0  0  0  0  0  0  0  0  0
  -25.7800   66.2910   24.7300 N   0  0  0  0  0  0  0  0  0  0  0  0
  -26.6800   66.6090   24.3090 H   0  0  0  0  0  0  0  0  0  0  0  0
  -24.6370   66.8430   24.2430 C   0  0  0  0  0  0  0  0  0  0  0  0
  -23.3880   66.4590   24.7300 C   0  0  0  0  0  0  0  0  0  0  0  0
  -23.2880   65.4890   25.7260 C   0  0  0  0  0  0  0  0  0  0  0  0
  -24.4470   64.8890   26.2500 C   0  0  0  0  0  0  0  0  0  0  0  0
  -24.3990   63.9020   27.2590 C   0  0  0  0  0  0  0  0  0  0  0  0
  -25.6150   63.3020   27.6930 C   0  0  0  0  0  0  0  0  0  0  0  0
  -28.2250   65.2410   25.7950 N   0  0  0  0  0  0  0  0  0  0  0  0
  -28.8000   65.8110   26.4550 H   0  0  0  0  0  0  0  0  0  0  0  0
  -28.7570   64.9750   24.4890 C   0  0  0  0  0  0  0  0  0  0  0  0
  -28.0310   64.4640   23.5930 O   0  0  0  0  0  0  0  0  0  0  0  0
  -30.1590   65.3740   24.1590 C   0  0  0  0  0  0  0  0  0  0  0  0
  -25.5790   62.2100   28.5770 O   0  0  0  0  0  0  0  0  0  0  0  0
  -26.4310   62.0340   29.7050 C   0  0  0  0  0  0  0  0  0  0  0  0
  -23.2250   63.5570   27.7280 N   0  0  0  0  0  0  0  0  0  0  0  0
  -22.5740   63.9410   28.9470 C   0  0  0  0  0  0  0  0  0  0  0  0
  -22.5660   65.1470   29.3170 O   0  0  0  0  0  0  0  0  0  0  0  0
  -21.7360   62.9450   29.6750 C   0  0  0  0  0  0  0  0  0  0  0  0
  1 11  2  0  0  0  0
  2  1  1  0  0  0  0
  3  2  2  0  0  0  0
  3  9  1  0  0  0  0
  4  3  1  0  0  0  0
  5  4  1  0  0  0  0
  6  4  1  0  0  0  0
  6  7  2  0  0  0  0
  7  8  1  0  0  0  0
  8  9  1  0  0  0  0
  9 10  2  0  0  0  0
 10 11  1  0  0  0  0
 10 19  1  0  0  0  0
 11 17  1  0  0  0  0
 12  2  1  0  0  0  0
 12 13  1  0  0  0  0
 14 12  1  0  0  0  0
 15 14  2  0  0  0  0
 16 14  1  0  0  0  0
 17 18  1  0  0  0  0
 19 20  1  0  0  0  0
 20 21  2  0  0  0  0
 20 22  1  0  0  0  0
M  END
>  <REMARK>
 VINA RESULT:      -6.6      2.336      3.976
  3 active torsions:
  status: ('A' for Active; 'I' for Inactive)
    1  A    between atoms: C2_2  and  N1_3 
       I    between atoms: N1_3  and  C3_5 
    2  A    between atoms: C10_15  and  N3_16 
       I    between atoms: N3_16  and  C11_17 
    3  A    between atoms: C13_20  and  O3_21 

>  <TORSDO>
F 3

$$$$
