../pdbqt/decoy.vina_out.70.pdbqt
 OpenBabel06052021513D

 20 22  0  0  0  0  0  0  0  0999 V2000
  -29.5500   65.1400   24.3450 C   0  0  0  0  0  0  0  0  0  0  0  0
  -28.0980   65.5020   24.3620 C   0  0  0  0  0  0  0  0  0  0  0  0
  -27.5360   66.2880   23.3460 C   0  0  0  0  0  0  0  0  0  0  0  0
  -26.1760   66.6080   23.3910 C   0  0  0  0  0  0  0  0  0  0  0  0
  -25.6290   67.3890   22.3770 O   0  0  0  0  0  0  0  0  0  0  0  0
  -25.3830   66.1410   24.4520 C   0  0  0  0  0  0  0  0  0  0  0  0
  -24.0120   66.4370   24.5390 C   0  0  0  0  0  0  0  0  0  0  0  0
  -23.2470   65.9640   25.6210 C   0  0  0  0  0  0  0  0  0  0  0  0
  -23.8640   65.1670   26.6010 C   0  0  0  0  0  0  0  0  0  0  0  0
  -25.2260   64.8680   26.5200 C   0  0  0  0  0  0  0  0  0  0  0  0
  -25.9890   65.3510   25.4550 C   0  0  0  0  0  0  0  0  0  0  0  0
  -27.3150   65.0580   25.3810 N   0  0  0  0  0  0  0  0  0  0  0  0
  -21.7980   66.2700   25.6910 C   0  0  0  0  0  0  0  0  0  0  0  0
  -21.3710   66.9760   26.6450 O   0  0  0  0  0  0  0  0  0  0  0  0
  -20.8320   65.7740   24.6790 C   0  0  0  0  0  0  0  0  0  0  0  0
  -20.8120   64.4190   24.2980 C   0  0  0  0  0  0  0  0  0  0  0  0
  -19.8850   63.9630   23.3570 C   0  0  0  0  0  0  0  0  0  0  0  0
  -18.9630   64.8490   22.7940 C   0  0  0  0  0  0  0  0  0  0  0  0
  -18.9620   66.1910   23.1770 C   0  0  0  0  0  0  0  0  0  0  0  0
  -19.8870   66.6530   24.1190 C   0  0  0  0  0  0  0  0  0  0  0  0
  1  2  1  0  0  0  0
  2 12  2  0  0  0  0
  3  4  2  0  0  0  0
  3  2  1  0  0  0  0
  4  6  1  0  0  0  0
  5  4  1  0  0  0  0
  6  7  2  0  0  0  0
  6 11  1  0  0  0  0
  7  8  1  0  0  0  0
  8 13  1  0  0  0  0
  8  9  2  0  0  0  0
 10  9  1  0  0  0  0
 11 10  2  0  0  0  0
 12 11  1  0  0  0  0
 13 14  2  0  0  0  0
 15 13  1  0  0  0  0
 16 15  1  0  0  0  0
 17 16  2  0  0  0  0
 18 19  2  0  0  0  0
 18 17  1  0  0  0  0
 19 20  1  0  0  0  0
 20 15  2  0  0  0  0
M  END
>  <MODEL>
1

>  <REMARK>
 VINA RESULT:      -8.8      0.000      0.000
  2 active torsions:
  status: ('A' for Active; 'I' for Inactive)
    1  A    between atoms: C7_8  and  C8_9 
    2  A    between atoms: C8_9  and  C9_11 

>  <TORSDO>
F 2

$$$$
../pdbqt/decoy.vina_out.70.pdbqt
 OpenBabel06052021513D

 20 22  0  0  0  0  0  0  0  0999 V2000
  -29.7320   65.5190   24.0640 C   0  0  0  0  0  0  0  0  0  0  0  0
  -28.2540   65.6810   24.2340 C   0  0  0  0  0  0  0  0  0  0  0  0
  -27.4910   66.3870   23.2940 C   0  0  0  0  0  0  0  0  0  0  0  0
  -26.1120   66.5200   23.4810 C   0  0  0  0  0  0  0  0  0  0  0  0
  -25.3630   67.2230   22.5410 O   0  0  0  0  0  0  0  0  0  0  0  0
  -25.5020   65.9460   24.6090 C   0  0  0  0  0  0  0  0  0  0  0  0
  -24.1190   66.0540   24.8400 C   0  0  0  0  0  0  0  0  0  0  0  0
  -23.5400   65.4780   25.9850 C   0  0  0  0  0  0  0  0  0  0  0  0
  -24.3560   64.7690   26.8840 C   0  0  0  0  0  0  0  0  0  0  0  0
  -25.7300   64.6570   26.6600 C   0  0  0  0  0  0  0  0  0  0  0  0
  -26.3080   65.2420   25.5310 C   0  0  0  0  0  0  0  0  0  0  0  0
  -27.6460   65.1320   25.3190 N   0  0  0  0  0  0  0  0  0  0  0  0
  -22.0780   65.5850   26.2060 C   0  0  0  0  0  0  0  0  0  0  0  0
  -21.3720   64.5430   26.1170 O   0  0  0  0  0  0  0  0  0  0  0  0
  -21.4150   66.8720   26.5290 C   0  0  0  0  0  0  0  0  0  0  0  0
  -21.0230   67.7620   25.5100 C   0  0  0  0  0  0  0  0  0  0  0  0
  -20.3840   68.9630   25.8280 C   0  0  0  0  0  0  0  0  0  0  0  0
  -20.1200   69.2860   27.1610 C   0  0  0  0  0  0  0  0  0  0  0  0
  -20.4880   68.4040   28.1790 C   0  0  0  0  0  0  0  0  0  0  0  0
  -21.1280   67.2000   27.8670 C   0  0  0  0  0  0  0  0  0  0  0  0
  1  2  1  0  0  0  0
  2 12  2  0  0  0  0
  3  4  2  0  0  0  0
  3  2  1  0  0  0  0
  4  6  1  0  0  0  0
  5  4  1  0  0  0  0
  6  7  2  0  0  0  0
  6 11  1  0  0  0  0
  7  8  1  0  0  0  0
  8 13  1  0  0  0  0
  8  9  2  0  0  0  0
 10  9  1  0  0  0  0
 11 10  2  0  0  0  0
 12 11  1  0  0  0  0
 13 15  1  0  0  0  0
 14 13  2  0  0  0  0
 15 20  2  0  0  0  0
 16 17  2  0  0  0  0
 16 15  1  0  0  0  0
 17 18  1  0  0  0  0
 18 19  2  0  0  0  0
 20 19  1  0  0  0  0
M  END
>  <REMARK>
 VINA RESULT:      -8.8      1.899      2.707
  2 active torsions:
  status: ('A' for Active; 'I' for Inactive)
    1  A    between atoms: C7_8  and  C8_9 
    2  A    between atoms: C8_9  and  C9_11 

>  <TORSDO>
F 2

$$$$
../pdbqt/decoy.vina_out.70.pdbqt
 OpenBabel06052021513D

 20 22  0  0  0  0  0  0  0  0999 V2000
  -18.2720   62.8830   25.9040 C   0  0  0  0  0  0  0  0  0  0  0  0
  -19.6300   63.3170   25.4450 C   0  0  0  0  0  0  0  0  0  0  0  0
  -20.3510   62.5640   24.5090 C   0  0  0  0  0  0  0  0  0  0  0  0
  -21.6160   62.9970   24.1000 C   0  0  0  0  0  0  0  0  0  0  0  0
  -22.3240   62.2430   23.1690 O   0  0  0  0  0  0  0  0  0  0  0  0
  -22.1540   64.1810   24.6310 C   0  0  0  0  0  0  0  0  0  0  0  0
  -23.4220   64.6550   24.2510 C   0  0  0  0  0  0  0  0  0  0  0  0
  -23.9380   65.8380   24.8090 C   0  0  0  0  0  0  0  0  0  0  0  0
  -23.1600   66.5580   25.7330 C   0  0  0  0  0  0  0  0  0  0  0  0
  -21.9000   66.0930   26.1150 C   0  0  0  0  0  0  0  0  0  0  0  0
  -21.3930   64.9090   25.5720 C   0  0  0  0  0  0  0  0  0  0  0  0
  -20.1660   64.4610   25.9480 N   0  0  0  0  0  0  0  0  0  0  0  0
  -25.2690   66.3360   24.3860 C   0  0  0  0  0  0  0  0  0  0  0  0
  -25.3320   67.3760   23.6750 O   0  0  0  0  0  0  0  0  0  0  0  0
  -26.5310   65.6550   24.7690 C   0  0  0  0  0  0  0  0  0  0  0  0
  -26.6400   64.9660   25.9920 C   0  0  0  0  0  0  0  0  0  0  0  0
  -27.8290   64.3140   26.3320 C   0  0  0  0  0  0  0  0  0  0  0  0
  -28.9150   64.3330   25.4540 C   0  0  0  0  0  0  0  0  0  0  0  0
  -28.8130   64.9990   24.2310 C   0  0  0  0  0  0  0  0  0  0  0  0
  -27.6260   65.6530   23.8850 C   0  0  0  0  0  0  0  0  0  0  0  0
  2  1  1  0  0  0  0
  2 12  2  0  0  0  0
  3  2  1  0  0  0  0
  4  3  2  0  0  0  0
  4  6  1  0  0  0  0
  5  4  1  0  0  0  0
  6 11  1  0  0  0  0
  7  6  2  0  0  0  0
  7  8  1  0  0  0  0
  8  9  2  0  0  0  0
  9 10  1  0  0  0  0
 11 12  1  0  0  0  0
 11 10  2  0  0  0  0
 13 15  1  0  0  0  0
 13  8  1  0  0  0  0
 14 13  2  0  0  0  0
 15 16  2  0  0  0  0
 16 17  1  0  0  0  0
 18 17  2  0  0  0  0
 19 18  1  0  0  0  0
 20 19  2  0  0  0  0
 20 15  1  0  0  0  0
M  END
>  <REMARK>
 VINA RESULT:      -8.3      2.531      6.733
  2 active torsions:
  status: ('A' for Active; 'I' for Inactive)
    1  A    between atoms: C7_8  and  C8_9 
    2  A    between atoms: C8_9  and  C9_11 

>  <TORSDO>
F 2

$$$$
../pdbqt/decoy.vina_out.70.pdbqt
 OpenBabel06052021513D

 20 22  0  0  0  0  0  0  0  0999 V2000
  -29.7470   65.3370   24.2320 C   0  0  0  0  0  0  0  0  0  0  0  0
  -28.3660   65.2520   24.8050 C   0  0  0  0  0  0  0  0  0  0  0  0
  -28.1040   64.4860   25.9490 C   0  0  0  0  0  0  0  0  0  0  0  0
  -26.8040   64.4280   26.4600 C   0  0  0  0  0  0  0  0  0  0  0  0
  -26.5540   63.6660   27.5970 O   0  0  0  0  0  0  0  0  0  0  0  0
  -25.7710   65.1370   25.8220 C   0  0  0  0  0  0  0  0  0  0  0  0
  -24.4490   65.1080   26.2990 C   0  0  0  0  0  0  0  0  0  0  0  0
  -23.4350   65.8180   25.6320 C   0  0  0  0  0  0  0  0  0  0  0  0
  -23.7640   66.5810   24.4970 C   0  0  0  0  0  0  0  0  0  0  0  0
  -25.0750   66.6140   24.0190 C   0  0  0  0  0  0  0  0  0  0  0  0
  -26.0800   65.8960   24.6720 C   0  0  0  0  0  0  0  0  0  0  0  0
  -27.3550   65.9310   24.2020 N   0  0  0  0  0  0  0  0  0  0  0  0
  -22.0480   65.7930   26.1560 C   0  0  0  0  0  0  0  0  0  0  0  0
  -21.4620   64.6820   26.2740 O   0  0  0  0  0  0  0  0  0  0  0  0
  -21.3240   67.0290   26.5460 C   0  0  0  0  0  0  0  0  0  0  0  0
  -20.8120   67.9070   25.5720 C   0  0  0  0  0  0  0  0  0  0  0  0
  -20.1160   69.0580   25.9540 C   0  0  0  0  0  0  0  0  0  0  0  0
  -19.9160   69.3400   27.3070 C   0  0  0  0  0  0  0  0  0  0  0  0
  -20.4050   68.4670   28.2810 C   0  0  0  0  0  0  0  0  0  0  0  0
  -21.1010   67.3140   27.9050 C   0  0  0  0  0  0  0  0  0  0  0  0
  1  2  1  0  0  0  0
  2  3  2  0  0  0  0
  3  4  1  0  0  0  0
  4  5  1  0  0  0  0
  6  7  1  0  0  0  0
  6  4  2  0  0  0  0
  8 13  1  0  0  0  0
  8  7  2  0  0  0  0
  9  8  1  0  0  0  0
 10  9  2  0  0  0  0
 10 11  1  0  0  0  0
 11  6  1  0  0  0  0
 12 11  2  0  0  0  0
 12  2  1  0  0  0  0
 13 14  2  0  0  0  0
 13 15  1  0  0  0  0
 15 20  2  0  0  0  0
 16 17  2  0  0  0  0
 16 15  1  0  0  0  0
 17 18  1  0  0  0  0
 18 19  2  0  0  0  0
 20 19  1  0  0  0  0
M  END
>  <REMARK>
 VINA RESULT:      -8.1      2.443      3.486
  2 active torsions:
  status: ('A' for Active; 'I' for Inactive)
    1  A    between atoms: C7_8  and  C8_9 
    2  A    between atoms: C8_9  and  C9_11 

>  <TORSDO>
F 2

$$$$
../pdbqt/decoy.vina_out.70.pdbqt
 OpenBabel06052021513D

 20 22  0  0  0  0  0  0  0  0999 V2000
  -16.7570   66.2440   22.8760 C   0  0  0  0  0  0  0  0  0  0  0  0
  -18.1190   65.8390   23.3450 C   0  0  0  0  0  0  0  0  0  0  0  0
  -18.5920   64.5340   23.1540 C   0  0  0  0  0  0  0  0  0  0  0  0
  -19.8700   64.1880   23.6030 C   0  0  0  0  0  0  0  0  0  0  0  0
  -20.3300   62.8890   23.4080 O   0  0  0  0  0  0  0  0  0  0  0  0
  -20.6690   65.1500   24.2430 C   0  0  0  0  0  0  0  0  0  0  0  0
  -21.9600   64.8480   24.7120 C   0  0  0  0  0  0  0  0  0  0  0  0
  -22.7310   65.8310   25.3590 C   0  0  0  0  0  0  0  0  0  0  0  0
  -22.2080   67.1270   25.5070 C   0  0  0  0  0  0  0  0  0  0  0  0
  -20.9270   67.4340   25.0430 C   0  0  0  0  0  0  0  0  0  0  0  0
  -20.1540   66.4540   24.4140 C   0  0  0  0  0  0  0  0  0  0  0  0
  -18.9070   66.7580   23.9650 N   0  0  0  0  0  0  0  0  0  0  0  0
  -24.0980   65.5040   25.8330 C   0  0  0  0  0  0  0  0  0  0  0  0
  -24.2320   64.9090   26.9370 O   0  0  0  0  0  0  0  0  0  0  0  0
  -25.3130   65.8510   25.0540 C   0  0  0  0  0  0  0  0  0  0  0  0
  -25.2250   66.6190   23.8780 C   0  0  0  0  0  0  0  0  0  0  0  0
  -26.3800   66.9530   23.1640 C   0  0  0  0  0  0  0  0  0  0  0  0
  -27.6320   66.5350   23.6210 C   0  0  0  0  0  0  0  0  0  0  0  0
  -27.7320   65.7870   24.7950 C   0  0  0  0  0  0  0  0  0  0  0  0
  -26.5810   65.4500   25.5130 C   0  0  0  0  0  0  0  0  0  0  0  0
  1  2  1  0  0  0  0
  2 12  1  0  0  0  0
  3  2  2  0  0  0  0
  3  4  1  0  0  0  0
  4  6  2  0  0  0  0
  5  4  1  0  0  0  0
  6 11  1  0  0  0  0
  6  7  1  0  0  0  0
  7  8  2  0  0  0  0
  8  9  1  0  0  0  0
  8 13  1  0  0  0  0
 10  9  2  0  0  0  0
 11 10  1  0  0  0  0
 12 11  2  0  0  0  0
 13 14  2  0  0  0  0
 15 20  1  0  0  0  0
 15 13  1  0  0  0  0
 16 15  2  0  0  0  0
 17 18  2  0  0  0  0
 17 16  1  0  0  0  0
 18 19  1  0  0  0  0
 19 20  2  0  0  0  0
M  END
>  <REMARK>
 VINA RESULT:      -8.1      2.568      6.871
  2 active torsions:
  status: ('A' for Active; 'I' for Inactive)
    1  A    between atoms: C7_8  and  C8_9 
    2  A    between atoms: C8_9  and  C9_11 

>  <TORSDO>
F 2

$$$$
../pdbqt/decoy.vina_out.70.pdbqt
 OpenBabel06052021513D

 20 22  0  0  0  0  0  0  0  0999 V2000
  -17.9130   64.8060   26.1310 C   0  0  0  0  0  0  0  0  0  0  0  0
  -19.2470   65.3880   25.7810 C   0  0  0  0  0  0  0  0  0  0  0  0
  -19.4550   66.7740   25.7820 C   0  0  0  0  0  0  0  0  0  0  0  0
  -20.7130   67.2860   25.4520 C   0  0  0  0  0  0  0  0  0  0  0  0
  -20.9080   68.6630   25.4560 O   0  0  0  0  0  0  0  0  0  0  0  0
  -21.7590   66.4080   25.1220 C   0  0  0  0  0  0  0  0  0  0  0  0
  -23.0400   66.8760   24.7830 C   0  0  0  0  0  0  0  0  0  0  0  0
  -24.0640   65.9720   24.4450 C   0  0  0  0  0  0  0  0  0  0  0  0
  -23.7980   64.5910   24.4780 C   0  0  0  0  0  0  0  0  0  0  0  0
  -22.5280   64.1190   24.8140 C   0  0  0  0  0  0  0  0  0  0  0  0
  -21.5070   65.0170   25.1340 C   0  0  0  0  0  0  0  0  0  0  0  0
  -20.2710   64.5530   25.4600 N   0  0  0  0  0  0  0  0  0  0  0  0
  -25.4160   66.4780   24.1070 C   0  0  0  0  0  0  0  0  0  0  0  0
  -25.5160   67.5270   23.4130 O   0  0  0  0  0  0  0  0  0  0  0  0
  -26.6550   65.7960   24.5550 C   0  0  0  0  0  0  0  0  0  0  0  0
  -26.7170   65.1560   25.8070 C   0  0  0  0  0  0  0  0  0  0  0  0
  -27.8860   64.5020   26.2100 C   0  0  0  0  0  0  0  0  0  0  0  0
  -28.9980   64.4720   25.3660 C   0  0  0  0  0  0  0  0  0  0  0  0
  -28.9420   65.0900   24.1150 C   0  0  0  0  0  0  0  0  0  0  0  0
  -27.7760   65.7450   23.7070 C   0  0  0  0  0  0  0  0  0  0  0  0
  2  3  1  0  0  0  0
  2  1  1  0  0  0  0
  4  5  1  0  0  0  0
  4  3  2  0  0  0  0
  6 11  1  0  0  0  0
  6  4  1  0  0  0  0
  7  6  2  0  0  0  0
  8  9  2  0  0  0  0
  8  7  1  0  0  0  0
  9 10  1  0  0  0  0
 10 11  2  0  0  0  0
 11 12  1  0  0  0  0
 12  2  2  0  0  0  0
 13  8  1  0  0  0  0
 13 15  1  0  0  0  0
 14 13  2  0  0  0  0
 15 16  2  0  0  0  0
 16 17  1  0  0  0  0
 18 17  2  0  0  0  0
 19 18  1  0  0  0  0
 20 19  2  0  0  0  0
 20 15  1  0  0  0  0
M  END
>  <REMARK>
 VINA RESULT:      -8.1      2.213      6.787
  2 active torsions:
  status: ('A' for Active; 'I' for Inactive)
    1  A    between atoms: C7_8  and  C8_9 
    2  A    between atoms: C8_9  and  C9_11 

>  <TORSDO>
F 2

$$$$
../pdbqt/decoy.vina_out.70.pdbqt
 OpenBabel06052021513D

 20 22  0  0  0  0  0  0  0  0999 V2000
  -29.1710   64.3710   28.1400 C   0  0  0  0  0  0  0  0  0  0  0  0
  -27.7700   63.9160   27.8710 C   0  0  0  0  0  0  0  0  0  0  0  0
  -27.2770   62.7260   28.4260 C   0  0  0  0  0  0  0  0  0  0  0  0
  -25.9640   62.3300   28.1560 C   0  0  0  0  0  0  0  0  0  0  0  0
  -25.4840   61.1480   28.7110 O   0  0  0  0  0  0  0  0  0  0  0  0
  -25.1500   63.1250   27.3330 C   0  0  0  0  0  0  0  0  0  0  0  0
  -23.8240   62.7660   27.0330 C   0  0  0  0  0  0  0  0  0  0  0  0
  -23.0370   63.5780   26.1960 C   0  0  0  0  0  0  0  0  0  0  0  0
  -23.5830   64.7680   25.6820 C   0  0  0  0  0  0  0  0  0  0  0  0
  -24.8990   65.1300   25.9760 C   0  0  0  0  0  0  0  0  0  0  0  0
  -25.6860   64.3160   26.7950 C   0  0  0  0  0  0  0  0  0  0  0  0
  -26.9670   64.6730   27.0770 N   0  0  0  0  0  0  0  0  0  0  0  0
  -21.6340   63.1960   25.9030 C   0  0  0  0  0  0  0  0  0  0  0  0
  -20.8870   62.8490   26.8570 O   0  0  0  0  0  0  0  0  0  0  0  0
  -21.0790   63.2090   24.5270 C   0  0  0  0  0  0  0  0  0  0  0  0
  -20.0270   64.0770   24.1780 C   0  0  0  0  0  0  0  0  0  0  0  0
  -19.5240   64.0910   22.8740 C   0  0  0  0  0  0  0  0  0  0  0  0
  -20.0710   63.2490   21.9030 C   0  0  0  0  0  0  0  0  0  0  0  0
  -21.1260   62.3960   22.2330 C   0  0  0  0  0  0  0  0  0  0  0  0
  -21.6320   62.3780   23.5360 C   0  0  0  0  0  0  0  0  0  0  0  0
  2  1  1  0  0  0  0
  2  3  2  0  0  0  0
  4  3  1  0  0  0  0
  4  5  1  0  0  0  0
  6  4  2  0  0  0  0
  7  6  1  0  0  0  0
  8  7  2  0  0  0  0
  9 10  2  0  0  0  0
  9  8  1  0  0  0  0
 10 11  1  0  0  0  0
 11 12  2  0  0  0  0
 11  6  1  0  0  0  0
 12  2  1  0  0  0  0
 13  8  1  0  0  0  0
 13 14  2  0  0  0  0
 15 13  1  0  0  0  0
 16 15  1  0  0  0  0
 17 16  2  0  0  0  0
 18 19  2  0  0  0  0
 18 17  1  0  0  0  0
 19 20  1  0  0  0  0
 20 15  2  0  0  0  0
M  END
>  <REMARK>
 VINA RESULT:      -8.0      2.938      4.003
  2 active torsions:
  status: ('A' for Active; 'I' for Inactive)
    1  A    between atoms: C7_8  and  C8_9 
    2  A    between atoms: C8_9  and  C9_11 

>  <TORSDO>
F 2

$$$$
../pdbqt/decoy.vina_out.70.pdbqt
 OpenBabel06052021513D

 20 22  0  0  0  0  0  0  0  0999 V2000
  -18.2490   64.3020   24.6730 C   0  0  0  0  0  0  0  0  0  0  0  0
  -19.6720   64.6030   25.0270 C   0  0  0  0  0  0  0  0  0  0  0  0
  -20.2130   65.8800   24.8240 C   0  0  0  0  0  0  0  0  0  0  0  0
  -21.5450   66.1290   25.1660 C   0  0  0  0  0  0  0  0  0  0  0  0
  -22.0730   67.4000   24.9610 O   0  0  0  0  0  0  0  0  0  0  0  0
  -22.3310   65.0990   25.7090 C   0  0  0  0  0  0  0  0  0  0  0  0
  -23.6760   65.3020   26.0670 C   0  0  0  0  0  0  0  0  0  0  0  0
  -24.4400   64.2470   26.5970 C   0  0  0  0  0  0  0  0  0  0  0  0
  -23.8360   62.9920   26.7920 C   0  0  0  0  0  0  0  0  0  0  0  0
  -22.5010   62.7840   26.4390 C   0  0  0  0  0  0  0  0  0  0  0  0
  -21.7460   63.8270   25.8970 C   0  0  0  0  0  0  0  0  0  0  0  0
  -20.4470   63.6180   25.5540 N   0  0  0  0  0  0  0  0  0  0  0  0
  -25.8510   64.4800   26.9870 C   0  0  0  0  0  0  0  0  0  0  0  0
  -26.1610   64.4320   28.2090 O   0  0  0  0  0  0  0  0  0  0  0  0
  -26.9130   64.7690   25.9920 C   0  0  0  0  0  0  0  0  0  0  0  0
  -26.7030   65.7000   24.9570 C   0  0  0  0  0  0  0  0  0  0  0  0
  -27.7180   65.9750   24.0360 C   0  0  0  0  0  0  0  0  0  0  0  0
  -28.9540   65.3340   24.1430 C   0  0  0  0  0  0  0  0  0  0  0  0
  -29.1800   64.4210   25.1750 C   0  0  0  0  0  0  0  0  0  0  0  0
  -28.1680   64.1420   26.0990 C   0  0  0  0  0  0  0  0  0  0  0  0
  1  2  1  0  0  0  0
  2 12  1  0  0  0  0
  3  2  2  0  0  0  0
  3  4  1  0  0  0  0
  4  6  2  0  0  0  0
  5  4  1  0  0  0  0
  6 11  1  0  0  0  0
  6  7  1  0  0  0  0
  7  8  2  0  0  0  0
  8  9  1  0  0  0  0
  8 13  1  0  0  0  0
 10  9  2  0  0  0  0
 11 10  1  0  0  0  0
 12 11  2  0  0  0  0
 13 14  2  0  0  0  0
 15 20  1  0  0  0  0
 15 13  1  0  0  0  0
 16 15  2  0  0  0  0
 17 18  2  0  0  0  0
 17 16  1  0  0  0  0
 18 19  1  0  0  0  0
 19 20  2  0  0  0  0
M  END
>  <REMARK>
 VINA RESULT:      -7.9      2.459      6.693
  2 active torsions:
  status: ('A' for Active; 'I' for Inactive)
    1  A    between atoms: C7_8  and  C8_9 
    2  A    between atoms: C8_9  and  C9_11 

>  <TORSDO>
F 2

$$$$
../pdbqt/decoy.vina_out.70.pdbqt
 OpenBabel06052021513D

 20 22  0  0  0  0  0  0  0  0999 V2000
  -17.3250   64.8520   21.3930 C   0  0  0  0  0  0  0  0  0  0  0  0
  -18.3960   65.1120   22.4070 C   0  0  0  0  0  0  0  0  0  0  0  0
  -18.4870   66.3490   23.0600 C   0  0  0  0  0  0  0  0  0  0  0  0
  -19.4980   66.5600   24.0030 C   0  0  0  0  0  0  0  0  0  0  0  0
  -19.5800   67.7910   24.6460 O   0  0  0  0  0  0  0  0  0  0  0  0
  -20.4130   65.5330   24.2880 C   0  0  0  0  0  0  0  0  0  0  0  0
  -21.4450   65.6990   25.2270 C   0  0  0  0  0  0  0  0  0  0  0  0
  -22.3530   64.6560   25.4820 C   0  0  0  0  0  0  0  0  0  0  0  0
  -22.2000   63.4320   24.8050 C   0  0  0  0  0  0  0  0  0  0  0  0
  -21.1760   63.2600   23.8720 C   0  0  0  0  0  0  0  0  0  0  0  0
  -20.2840   64.3020   23.6070 C   0  0  0  0  0  0  0  0  0  0  0  0
  -19.2890   64.1290   22.6960 N   0  0  0  0  0  0  0  0  0  0  0  0
  -23.4270   64.8390   26.4880 C   0  0  0  0  0  0  0  0  0  0  0  0
  -23.1200   64.8410   27.7110 O   0  0  0  0  0  0  0  0  0  0  0  0
  -24.8500   65.0200   26.1080 C   0  0  0  0  0  0  0  0  0  0  0  0
  -25.8820   64.4290   26.8600 C   0  0  0  0  0  0  0  0  0  0  0  0
  -27.2170   64.5940   26.4800 C   0  0  0  0  0  0  0  0  0  0  0  0
  -27.5360   65.3400   25.3430 C   0  0  0  0  0  0  0  0  0  0  0  0
  -26.5190   65.9160   24.5800 C   0  0  0  0  0  0  0  0  0  0  0  0
  -25.1820   65.7550   24.9550 C   0  0  0  0  0  0  0  0  0  0  0  0
  1  2  1  0  0  0  0
  2 12  2  0  0  0  0
  2  3  1  0  0  0  0
  3  4  2  0  0  0  0
  4  6  1  0  0  0  0
  4  5  1  0  0  0  0
  6  7  2  0  0  0  0
  7  8  1  0  0  0  0
  8 13  1  0  0  0  0
  9  8  2  0  0  0  0
 10  9  1  0  0  0  0
 11 10  2  0  0  0  0
 11  6  1  0  0  0  0
 12 11  1  0  0  0  0
 13 14  2  0  0  0  0
 15 13  1  0  0  0  0
 15 16  2  0  0  0  0
 17 16  1  0  0  0  0
 18 17  2  0  0  0  0
 19 20  2  0  0  0  0
 19 18  1  0  0  0  0
 20 15  1  0  0  0  0
M  END
>  <REMARK>
 VINA RESULT:      -7.9      2.665      6.719
  2 active torsions:
  status: ('A' for Active; 'I' for Inactive)
    1  A    between atoms: C7_8  and  C8_9 
    2  A    between atoms: C8_9  and  C9_11 

>  <TORSDO>
F 2

$$$$
