../pdbqt/decoy.vina_out.53.pdbqt
 OpenBabel06052021513D

 21 21  0  0  1  0  0  0  0  0999 V2000
  -23.3370   66.5260   24.8220 C   0  0  0  0  0  0  0  0  0  0  0  0
  -24.0250   65.6660   25.6760 C   0  0  0  0  0  0  0  0  0  0  0  0
  -25.3590   65.6950   25.2740 C   0  0  0  0  0  0  0  0  0  0  0  0
  -26.5070   64.9760   25.9300 C   0  0  0  0  0  0  0  0  0  0  0  0
  -25.4200   66.5620   24.1820 C   0  0  0  0  0  0  0  0  0  0  0  0
  -24.1940   67.0660   23.9270 N   0  0  0  0  0  0  0  0  0  0  0  0
  -23.9640   67.7310   23.1560 H   0  0  0  0  0  0  0  0  0  0  0  0
  -26.5060   66.8760   23.4500 C   0  0  1  0  0  0  0  0  0  0  0  0
  -26.4750   66.6480   22.0710 O   0  0  0  0  0  0  0  0  0  0  0  0
  -25.9090   67.1930   21.4340 H   0  0  0  0  0  0  0  0  0  0  0  0
  -27.6470   67.4030   24.0720 O   0  0  0  0  0  0  0  0  0  0  0  0
  -28.9700   66.8920   23.9250 C   0  0  0  0  0  0  0  0  0  0  0  0
  -28.9620   65.3670   23.9280 C   0  0  0  0  0  0  0  0  0  0  0  0
  -23.4610   64.8740   26.7880 C   0  0  0  0  0  0  0  0  0  0  0  0
  -23.0450   65.4570   27.8260 O   0  0  0  0  0  0  0  0  0  0  0  0
  -23.3910   63.4790   26.6850 O   0  0  0  0  0  0  0  0  0  0  0  0
  -23.6260   62.5970   27.7810 C   0  0  0  0  0  0  0  0  0  0  0  0
  -25.1110   62.2790   27.9070 C   0  0  0  0  0  0  0  0  0  0  0  0
  -22.0100   66.7550   24.8390 C   0  0  0  0  0  0  0  0  0  0  0  0
  -21.3460   67.4850   23.8510 O   0  0  0  0  0  0  0  0  0  0  0  0
  -21.7940   68.1760   23.2650 H   0  0  0  0  0  0  0  0  0  0  0  0
  1 19  1  0  0  0  0
  1  2  2  0  0  0  0
  2 14  1  0  0  0  0
  3  2  1  0  0  0  0
  3  4  1  0  0  0  0
  5  3  2  0  0  0  0
  6  5  1  0  0  0  0
  6  1  1  0  0  0  0
  7  6  1  0  0  0  0
  8  9  1  1  0  0  0
  8 11  1  0  0  0  0
  8  5  1  0  0  0  0
 10  9  1  0  0  0  0
 12 13  1  0  0  0  0
 12 11  1  0  0  0  0
 14 15  2  0  0  0  0
 16 14  1  0  0  0  0
 16 17  1  0  0  0  0
 17 18  1  0  0  0  0
 20 19  1  0  0  0  0
 21 20  1  0  0  0  0
M  END
>  <MODEL>
1

>  <REMARK>
 VINA RESULT:      -6.8      0.000      0.000
  9 active torsions:
  status: ('A' for Active; 'I' for Inactive)
    1  A    between atoms: O1_2  and  C1_3 
    2  A    between atoms: C1_3  and  C2_4 
    3  A    between atoms: C3_5  and  C4_6 
    4  A    between atoms: C4_6  and  O3_8 
    5  A    between atoms: O3_8  and  C5_9 
    6  A    between atoms: C9_13  and  C10_14 
    7  A    between atoms: C10_14  and  O4_15 
    8  A    between atoms: C10_14  and  O5_17 
    9  A    between atoms: O5_17  and  C11_18 

>  <TORSDO>
F 9

$$$$
../pdbqt/decoy.vina_out.53.pdbqt
 OpenBabel06052021513D

 21 21  0  0  1  0  0  0  0  0999 V2000
  -26.1010   66.2370   24.2530 C   0  0  0  0  0  0  0  0  0  0  0  0
  -25.0950   65.6770   25.0370 C   0  0  0  0  0  0  0  0  0  0  0  0
  -25.7330   64.9390   26.0320 C   0  0  0  0  0  0  0  0  0  0  0  0
  -25.0710   64.1990   27.1620 C   0  0  0  0  0  0  0  0  0  0  0  0
  -27.1030   65.0710   25.7980 C   0  0  0  0  0  0  0  0  0  0  0  0
  -27.3110   65.8670   24.7280 N   0  0  0  0  0  0  0  0  0  0  0  0
  -28.2460   66.1180   24.3360 H   0  0  0  0  0  0  0  0  0  0  0  0
  -28.1070   64.5050   26.4940 C   0  0  1  0  0  0  0  0  0  0  0  0
  -29.0270   63.7010   25.8140 O   0  0  0  0  0  0  0  0  0  0  0  0
  -29.9840   63.9790   25.6450 H   0  0  0  0  0  0  0  0  0  0  0  0
  -28.2080   64.7090   27.8780 O   0  0  0  0  0  0  0  0  0  0  0  0
  -28.6650   63.7400   28.8180 C   0  0  0  0  0  0  0  0  0  0  0  0
  -27.7350   62.5310   28.8410 C   0  0  0  0  0  0  0  0  0  0  0  0
  -23.6360   65.8280   24.8580 C   0  0  0  0  0  0  0  0  0  0  0  0
  -23.0900   66.9450   25.0690 O   0  0  0  0  0  0  0  0  0  0  0  0
  -22.8670   64.7300   24.4540 O   0  0  0  0  0  0  0  0  0  0  0  0
  -21.8010   64.1880   25.2320 C   0  0  0  0  0  0  0  0  0  0  0  0
  -22.0730   62.7280   25.5740 C   0  0  0  0  0  0  0  0  0  0  0  0
  -25.9130   66.9910   23.1530 C   0  0  0  0  0  0  0  0  0  0  0  0
  -26.5020   66.7060   21.9190 O   0  0  0  0  0  0  0  0  0  0  0  0
  -27.4760   66.8750   21.7080 H   0  0  0  0  0  0  0  0  0  0  0  0
  1  6  1  0  0  0  0
  1  2  2  0  0  0  0
  2  3  1  0  0  0  0
  3  4  1  0  0  0  0
  5  3  2  0  0  0  0
  5  8  1  0  0  0  0
  6  5  1  0  0  0  0
  7  6  1  0  0  0  0
  8  9  1  1  0  0  0
  8 11  1  0  0  0  0
 10  9  1  0  0  0  0
 11 12  1  0  0  0  0
 12 13  1  0  0  0  0
 14  2  1  0  0  0  0
 14 15  2  0  0  0  0
 16 14  1  0  0  0  0
 16 17  1  0  0  0  0
 17 18  1  0  0  0  0
 19  1  1  0  0  0  0
 20 19  1  0  0  0  0
 21 20  1  0  0  0  0
M  END
>  <REMARK>
 VINA RESULT:      -6.6      2.455      3.862
  9 active torsions:
  status: ('A' for Active; 'I' for Inactive)
    1  A    between atoms: O1_2  and  C1_3 
    2  A    between atoms: C1_3  and  C2_4 
    3  A    between atoms: C3_5  and  C4_6 
    4  A    between atoms: C4_6  and  O3_8 
    5  A    between atoms: O3_8  and  C5_9 
    6  A    between atoms: C9_13  and  C10_14 
    7  A    between atoms: C10_14  and  O4_15 
    8  A    between atoms: C10_14  and  O5_17 
    9  A    between atoms: O5_17  and  C11_18 

>  <TORSDO>
F 9

$$$$
../pdbqt/decoy.vina_out.53.pdbqt
 OpenBabel06052021513D

 21 21  0  0  1  0  0  0  0  0999 V2000
  -25.5430   66.8040   23.7400 C   0  0  0  0  0  0  0  0  0  0  0  0
  -25.9660   65.9220   24.7340 C   0  0  0  0  0  0  0  0  0  0  0  0
  -24.8400   65.6130   25.4930 C   0  0  0  0  0  0  0  0  0  0  0  0
  -24.7750   64.6480   26.6460 C   0  0  0  0  0  0  0  0  0  0  0  0
  -23.7820   66.3330   24.9360 C   0  0  0  0  0  0  0  0  0  0  0  0
  -24.2180   67.0380   23.8710 N   0  0  0  0  0  0  0  0  0  0  0  0
  -23.6290   67.6690   23.2830 H   0  0  0  0  0  0  0  0  0  0  0  0
  -22.5050   66.3660   25.3600 C   0  0  1  0  0  0  0  0  0  0  0  0
  -21.9340   67.6010   25.6810 O   0  0  0  0  0  0  0  0  0  0  0  0
  -21.0600   67.6920   26.1810 H   0  0  0  0  0  0  0  0  0  0  0  0
  -21.7750   65.1740   25.4920 O   0  0  0  0  0  0  0  0  0  0  0  0
  -21.3590   64.3460   24.4090 C   0  0  0  0  0  0  0  0  0  0  0  0
  -22.2160   63.0860   24.3340 C   0  0  0  0  0  0  0  0  0  0  0  0
  -27.3360   65.4130   24.9490 C   0  0  0  0  0  0  0  0  0  0  0  0
  -27.9550   64.8570   24.0010 O   0  0  0  0  0  0  0  0  0  0  0  0
  -27.9410   65.5490   26.2050 O   0  0  0  0  0  0  0  0  0  0  0  0
  -28.7520   64.5380   26.8000 C   0  0  0  0  0  0  0  0  0  0  0  0
  -27.8860   63.4690   27.4560 C   0  0  0  0  0  0  0  0  0  0  0  0
  -26.3320   67.3840   22.8160 C   0  0  0  0  0  0  0  0  0  0  0  0
  -26.9420   66.6760   21.7780 O   0  0  0  0  0  0  0  0  0  0  0  0
  -27.9290   66.7290   21.5640 H   0  0  0  0  0  0  0  0  0  0  0  0
  1  6  1  0  0  0  0
  1  2  2  0  0  0  0
  2 14  1  0  0  0  0
  2  3  1  0  0  0  0
  3  4  1  0  0  0  0
  5  8  1  0  0  0  0
  5  3  2  0  0  0  0
  6  5  1  0  0  0  0
  7  6  1  0  0  0  0
  8 11  1  1  0  0  0
  8  9  1  0  0  0  0
  9 10  1  0  0  0  0
 12 11  1  0  0  0  0
 13 12  1  0  0  0  0
 14 16  1  0  0  0  0
 15 14  2  0  0  0  0
 16 17  1  0  0  0  0
 17 18  1  0  0  0  0
 19  1  1  0  0  0  0
 20 19  1  0  0  0  0
 21 20  1  0  0  0  0
M  END
>  <REMARK>
 VINA RESULT:      -6.4      1.853      4.786
  9 active torsions:
  status: ('A' for Active; 'I' for Inactive)
    1  A    between atoms: O1_2  and  C1_3 
    2  A    between atoms: C1_3  and  C2_4 
    3  A    between atoms: C3_5  and  C4_6 
    4  A    between atoms: C4_6  and  O3_8 
    5  A    between atoms: O3_8  and  C5_9 
    6  A    between atoms: C9_13  and  C10_14 
    7  A    between atoms: C10_14  and  O4_15 
    8  A    between atoms: C10_14  and  O5_17 
    9  A    between atoms: O5_17  and  C11_18 

>  <TORSDO>
F 9

$$$$
../pdbqt/decoy.vina_out.53.pdbqt
 OpenBabel06052021513D

 21 21  0  0  1  0  0  0  0  0999 V2000
  -25.5300   66.8010   23.7490 C   0  0  0  0  0  0  0  0  0  0  0  0
  -25.9290   65.8880   24.7240 C   0  0  0  0  0  0  0  0  0  0  0  0
  -24.7800   65.5320   25.4270 C   0  0  0  0  0  0  0  0  0  0  0  0
  -24.6880   64.5220   26.5380 C   0  0  0  0  0  0  0  0  0  0  0  0
  -23.7320   66.2570   24.8560 C   0  0  0  0  0  0  0  0  0  0  0  0
  -24.1970   67.0100   23.8370 N   0  0  0  0  0  0  0  0  0  0  0  0
  -23.6210   67.6540   23.2510 H   0  0  0  0  0  0  0  0  0  0  0  0
  -22.4390   66.2540   25.2320 C   0  0  1  0  0  0  0  0  0  0  0  0
  -21.6000   65.2480   24.7450 O   0  0  0  0  0  0  0  0  0  0  0  0
  -20.5940   65.3380   24.7070 H   0  0  0  0  0  0  0  0  0  0  0  0
  -21.9510   67.2570   26.0820 O   0  0  0  0  0  0  0  0  0  0  0  0
  -21.1340   68.3510   25.6720 C   0  0  0  0  0  0  0  0  0  0  0  0
  -20.5940   69.1040   26.8840 C   0  0  0  0  0  0  0  0  0  0  0  0
  -27.2980   65.3910   24.9730 C   0  0  0  0  0  0  0  0  0  0  0  0
  -28.0070   64.9950   24.0080 O   0  0  0  0  0  0  0  0  0  0  0  0
  -27.8020   65.3620   26.2790 O   0  0  0  0  0  0  0  0  0  0  0  0
  -28.6360   64.3170   26.7770 C   0  0  0  0  0  0  0  0  0  0  0  0
  -27.9340   63.5550   27.8940 C   0  0  0  0  0  0  0  0  0  0  0  0
  -26.3430   67.4280   22.8790 C   0  0  0  0  0  0  0  0  0  0  0  0
  -26.9540   66.7840   21.8010 O   0  0  0  0  0  0  0  0  0  0  0  0
  -27.4760   67.2630   21.0800 H   0  0  0  0  0  0  0  0  0  0  0  0
  1  6  1  0  0  0  0
  1  2  2  0  0  0  0
  2 14  1  0  0  0  0
  2  3  1  0  0  0  0
  3  4  1  0  0  0  0
  5  8  1  0  0  0  0
  5  3  2  0  0  0  0
  6  5  1  0  0  0  0
  7  6  1  0  0  0  0
  8  9  1  6  0  0  0
  8 11  1  0  0  0  0
 10  9  1  0  0  0  0
 12 11  1  0  0  0  0
 12 13  1  0  0  0  0
 14 16  1  0  0  0  0
 15 14  2  0  0  0  0
 16 17  1  0  0  0  0
 17 18  1  0  0  0  0
 19  1  1  0  0  0  0
 20 19  1  0  0  0  0
 21 20  1  0  0  0  0
M  END
>  <REMARK>
 VINA RESULT:      -6.4      1.857      4.977
  9 active torsions:
  status: ('A' for Active; 'I' for Inactive)
    1  A    between atoms: O1_2  and  C1_3 
    2  A    between atoms: C1_3  and  C2_4 
    3  A    between atoms: C3_5  and  C4_6 
    4  A    between atoms: C4_6  and  O3_8 
    5  A    between atoms: O3_8  and  C5_9 
    6  A    between atoms: C9_13  and  C10_14 
    7  A    between atoms: C10_14  and  O4_15 
    8  A    between atoms: C10_14  and  O5_17 
    9  A    between atoms: O5_17  and  C11_18 

>  <TORSDO>
F 9

$$$$
../pdbqt/decoy.vina_out.53.pdbqt
 OpenBabel06052021513D

 21 21  0  0  1  0  0  0  0  0999 V2000
  -23.0280   66.6040   24.9640 C   0  0  0  0  0  0  0  0  0  0  0  0
  -23.5930   65.6900   25.8520 C   0  0  0  0  0  0  0  0  0  0  0  0
  -24.9300   65.5540   25.4820 C   0  0  0  0  0  0  0  0  0  0  0  0
  -25.9710   64.7230   26.1810 C   0  0  0  0  0  0  0  0  0  0  0  0
  -25.1150   66.3820   24.3740 C   0  0  0  0  0  0  0  0  0  0  0  0
  -23.9620   67.0200   24.0790 N   0  0  0  0  0  0  0  0  0  0  0  0
  -23.8280   67.6880   23.2880 H   0  0  0  0  0  0  0  0  0  0  0  0
  -26.2460   66.5500   23.6610 C   0  0  1  0  0  0  0  0  0  0  0  0
  -26.1790   66.4730   22.2670 O   0  0  0  0  0  0  0  0  0  0  0  0
  -25.3190   66.5860   21.7480 H   0  0  0  0  0  0  0  0  0  0  0  0
  -27.4640   66.7790   24.3180 O   0  0  0  0  0  0  0  0  0  0  0  0
  -28.7450   66.3940   23.8240 C   0  0  0  0  0  0  0  0  0  0  0  0
  -29.0900   64.9760   24.2690 C   0  0  0  0  0  0  0  0  0  0  0  0
  -22.9160   64.9960   26.9670 C   0  0  0  0  0  0  0  0  0  0  0  0
  -22.6170   63.7750   26.8570 O   0  0  0  0  0  0  0  0  0  0  0  0
  -22.6100   65.6960   28.1390 O   0  0  0  0  0  0  0  0  0  0  0  0
  -21.2820   66.0550   28.5160 C   0  0  0  0  0  0  0  0  0  0  0  0
  -21.1360   67.5700   28.5960 C   0  0  0  0  0  0  0  0  0  0  0  0
  -21.7380   66.9870   24.9440 C   0  0  0  0  0  0  0  0  0  0  0  0
  -21.3350   68.3240   24.9370 O   0  0  0  0  0  0  0  0  0  0  0  0
  -20.5000   68.6590   24.4760 H   0  0  0  0  0  0  0  0  0  0  0  0
  1  2  2  0  0  0  0
  2 14  1  0  0  0  0
  3  2  1  0  0  0  0
  3  4  1  0  0  0  0
  5  3  2  0  0  0  0
  6  5  1  0  0  0  0
  6  1  1  0  0  0  0
  7  6  1  0  0  0  0
  8  9  1  1  0  0  0
  8 11  1  0  0  0  0
  8  5  1  0  0  0  0
 10  9  1  0  0  0  0
 12 13  1  0  0  0  0
 12 11  1  0  0  0  0
 14 16  1  0  0  0  0
 15 14  2  0  0  0  0
 16 17  1  0  0  0  0
 17 18  1  0  0  0  0
 19  1  1  0  0  0  0
 20 19  1  0  0  0  0
 21 20  1  0  0  0  0
M  END
>  <REMARK>
 VINA RESULT:      -6.3      1.308      2.094
  9 active torsions:
  status: ('A' for Active; 'I' for Inactive)
    1  A    between atoms: O1_2  and  C1_3 
    2  A    between atoms: C1_3  and  C2_4 
    3  A    between atoms: C3_5  and  C4_6 
    4  A    between atoms: C4_6  and  O3_8 
    5  A    between atoms: O3_8  and  C5_9 
    6  A    between atoms: C9_13  and  C10_14 
    7  A    between atoms: C10_14  and  O4_15 
    8  A    between atoms: C10_14  and  O5_17 
    9  A    between atoms: O5_17  and  C11_18 

>  <TORSDO>
F 9

$$$$
../pdbqt/decoy.vina_out.53.pdbqt
 OpenBabel06052021513D

 21 21  0  0  1  0  0  0  0  0999 V2000
  -26.2870   62.8470   27.8620 C   0  0  0  0  0  0  0  0  0  0  0  0
  -26.6360   63.8610   26.9710 C   0  0  0  0  0  0  0  0  0  0  0  0
  -25.4450   64.3330   26.4230 C   0  0  0  0  0  0  0  0  0  0  0  0
  -25.2960   65.4730   25.4530 C   0  0  0  0  0  0  0  0  0  0  0  0
  -24.4230   63.5730   26.9960 C   0  0  0  0  0  0  0  0  0  0  0  0
  -24.9450   62.6880   27.8710 N   0  0  0  0  0  0  0  0  0  0  0  0
  -24.3960   61.9940   28.4260 H   0  0  0  0  0  0  0  0  0  0  0  0
  -23.1030   63.6590   26.7420 C   0  0  1  0  0  0  0  0  0  0  0  0
  -22.4270   64.8330   27.0870 O   0  0  0  0  0  0  0  0  0  0  0  0
  -22.6350   65.3650   27.9200 H   0  0  0  0  0  0  0  0  0  0  0  0
  -22.4270   62.5770   26.1590 O   0  0  0  0  0  0  0  0  0  0  0  0
  -21.5190   62.6740   25.0630 C   0  0  0  0  0  0  0  0  0  0  0  0
  -22.2690   62.9510   23.7650 C   0  0  0  0  0  0  0  0  0  0  0  0
  -27.9970   64.3460   26.6600 C   0  0  0  0  0  0  0  0  0  0  0  0
  -28.6280   65.0320   27.5100 O   0  0  0  0  0  0  0  0  0  0  0  0
  -28.5790   64.0410   25.4240 O   0  0  0  0  0  0  0  0  0  0  0  0
  -29.2400   65.0060   24.6070 C   0  0  0  0  0  0  0  0  0  0  0  0
  -28.3020   65.5290   23.5250 C   0  0  0  0  0  0  0  0  0  0  0  0
  -27.1480   62.0950   28.5730 C   0  0  0  0  0  0  0  0  0  0  0  0
  -26.8530   61.5850   29.8400 O   0  0  0  0  0  0  0  0  0  0  0  0
  -26.6260   60.6160   30.0180 H   0  0  0  0  0  0  0  0  0  0  0  0
  1  6  1  0  0  0  0
  1 19  1  0  0  0  0
  2  1  2  0  0  0  0
  3  2  1  0  0  0  0
  3  5  2  0  0  0  0
  4  3  1  0  0  0  0
  5  6  1  0  0  0  0
  6  7  1  0  0  0  0
  8 11  1  1  0  0  0
  8  5  1  0  0  0  0
  8  9  1  0  0  0  0
  9 10  1  0  0  0  0
 12 11  1  0  0  0  0
 13 12  1  0  0  0  0
 14  2  1  0  0  0  0
 14 15  2  0  0  0  0
 16 14  1  0  0  0  0
 17 16  1  0  0  0  0
 18 17  1  0  0  0  0
 19 20  1  0  0  0  0
 20 21  1  0  0  0  0
M  END
>  <REMARK>
 VINA RESULT:      -6.1      2.799      6.195
  9 active torsions:
  status: ('A' for Active; 'I' for Inactive)
    1  A    between atoms: O1_2  and  C1_3 
    2  A    between atoms: C1_3  and  C2_4 
    3  A    between atoms: C3_5  and  C4_6 
    4  A    between atoms: C4_6  and  O3_8 
    5  A    between atoms: O3_8  and  C5_9 
    6  A    between atoms: C9_13  and  C10_14 
    7  A    between atoms: C10_14  and  O4_15 
    8  A    between atoms: C10_14  and  O5_17 
    9  A    between atoms: O5_17  and  C11_18 

>  <TORSDO>
F 9

$$$$
../pdbqt/decoy.vina_out.53.pdbqt
 OpenBabel06052021513D

 21 21  0  0  1  0  0  0  0  0999 V2000
  -25.1450   65.5580   25.2000 C   0  0  0  0  0  0  0  0  0  0  0  0
  -25.9860   64.7480   25.9610 C   0  0  0  0  0  0  0  0  0  0  0  0
  -25.1590   63.9090   26.7060 C   0  0  0  0  0  0  0  0  0  0  0  0
  -25.6010   62.8110   27.6350 C   0  0  0  0  0  0  0  0  0  0  0  0
  -23.8480   64.2580   26.3750 C   0  0  0  0  0  0  0  0  0  0  0  0
  -23.8550   65.2460   25.4560 N   0  0  0  0  0  0  0  0  0  0  0  0
  -23.0050   65.6970   25.0480 H   0  0  0  0  0  0  0  0  0  0  0  0
  -22.7140   63.7310   26.8740 C   0  0  1  0  0  0  0  0  0  0  0  0
  -22.1690   64.2860   28.0350 O   0  0  0  0  0  0  0  0  0  0  0  0
  -21.3520   63.9090   28.4970 H   0  0  0  0  0  0  0  0  0  0  0  0
  -22.1090   62.6350   26.2410 O   0  0  0  0  0  0  0  0  0  0  0  0
  -21.2090   62.7200   25.1390 C   0  0  0  0  0  0  0  0  0  0  0  0
  -19.7780   62.4440   25.5880 C   0  0  0  0  0  0  0  0  0  0  0  0
  -27.4630   64.7670   25.9820 C   0  0  0  0  0  0  0  0  0  0  0  0
  -28.0720   65.0640   27.0460 O   0  0  0  0  0  0  0  0  0  0  0  0
  -28.1800   64.4560   24.8210 O   0  0  0  0  0  0  0  0  0  0  0  0
  -29.3070   65.2050   24.3690 C   0  0  0  0  0  0  0  0  0  0  0  0
  -28.9040   66.6360   24.0330 C   0  0  0  0  0  0  0  0  0  0  0  0
  -25.5410   66.5420   24.3700 C   0  0  0  0  0  0  0  0  0  0  0  0
  -24.6510   67.3220   23.6290 O   0  0  0  0  0  0  0  0  0  0  0  0
  -24.7010   68.3300   23.5680 H   0  0  0  0  0  0  0  0  0  0  0  0
  1  6  1  0  0  0  0
  1  2  2  0  0  0  0
  2 14  1  0  0  0  0
  2  3  1  0  0  0  0
  3  4  1  0  0  0  0
  5  3  2  0  0  0  0
  5  8  1  0  0  0  0
  6  5  1  0  0  0  0
  7  6  1  0  0  0  0
  8 11  1  1  0  0  0
  8  9  1  0  0  0  0
  9 10  1  0  0  0  0
 12 13  1  0  0  0  0
 12 11  1  0  0  0  0
 14 15  2  0  0  0  0
 16 14  1  0  0  0  0
 17 16  1  0  0  0  0
 18 17  1  0  0  0  0
 19  1  1  0  0  0  0
 20 19  1  0  0  0  0
 21 20  1  0  0  0  0
M  END
>  <REMARK>
 VINA RESULT:      -5.6      2.126      5.591
  9 active torsions:
  status: ('A' for Active; 'I' for Inactive)
    1  A    between atoms: O1_2  and  C1_3 
    2  A    between atoms: C1_3  and  C2_4 
    3  A    between atoms: C3_5  and  C4_6 
    4  A    between atoms: C4_6  and  O3_8 
    5  A    between atoms: O3_8  and  C5_9 
    6  A    between atoms: C9_13  and  C10_14 
    7  A    between atoms: C10_14  and  O4_15 
    8  A    between atoms: C10_14  and  O5_17 
    9  A    between atoms: O5_17  and  C11_18 

>  <TORSDO>
F 9

$$$$
../pdbqt/decoy.vina_out.53.pdbqt
 OpenBabel06052021513D

 21 21  0  0  1  0  0  0  0  0999 V2000
  -21.6100   66.8710   24.9360 C   0  0  0  0  0  0  0  0  0  0  0  0
  -21.4160   65.4900   24.9250 C   0  0  0  0  0  0  0  0  0  0  0  0
  -22.6760   64.9160   24.7640 C   0  0  0  0  0  0  0  0  0  0  0  0
  -22.9940   63.4450   24.7550 C   0  0  0  0  0  0  0  0  0  0  0  0
  -23.5800   65.9750   24.6670 C   0  0  0  0  0  0  0  0  0  0  0  0
  -22.9240   67.1500   24.7850 N   0  0  0  0  0  0  0  0  0  0  0  0
  -23.3660   68.0940   24.7360 H   0  0  0  0  0  0  0  0  0  0  0  0
  -24.9100   65.8970   24.4750 C   0  0  1  0  0  0  0  0  0  0  0  0
  -25.3950   65.7940   23.1680 O   0  0  0  0  0  0  0  0  0  0  0  0
  -26.0350   66.4640   22.7630 H   0  0  0  0  0  0  0  0  0  0  0  0
  -25.7820   65.9010   25.5740 O   0  0  0  0  0  0  0  0  0  0  0  0
  -26.3850   64.7420   26.1440 C   0  0  0  0  0  0  0  0  0  0  0  0
  -25.5550   64.2220   27.3130 C   0  0  0  0  0  0  0  0  0  0  0  0
  -20.1340   64.7690   25.0580 C   0  0  0  0  0  0  0  0  0  0  0  0
  -19.6750   64.5080   26.2030 O   0  0  0  0  0  0  0  0  0  0  0  0
  -19.4330   64.3780   23.9100 O   0  0  0  0  0  0  0  0  0  0  0  0
  -19.4420   63.0450   23.4000 C   0  0  0  0  0  0  0  0  0  0  0  0
  -20.3580   62.9400   22.1870 C   0  0  0  0  0  0  0  0  0  0  0  0
  -20.6400   67.8000   25.0280 C   0  0  0  0  0  0  0  0  0  0  0  0
  -20.8990   69.1670   25.1510 O   0  0  0  0  0  0  0  0  0  0  0  0
  -21.6140   69.5530   25.7510 H   0  0  0  0  0  0  0  0  0  0  0  0
  1 19  1  0  0  0  0
  2  1  2  0  0  0  0
  2 14  1  0  0  0  0
  3  2  1  0  0  0  0
  4  3  1  0  0  0  0
  5  3  2  0  0  0  0
  5  6  1  0  0  0  0
  6  1  1  0  0  0  0
  7  6  1  0  0  0  0
  8  9  1  1  0  0  0
  8  5  1  0  0  0  0
  8 11  1  0  0  0  0
 10  9  1  0  0  0  0
 11 12  1  0  0  0  0
 12 13  1  0  0  0  0
 14 15  2  0  0  0  0
 16 14  1  0  0  0  0
 17 16  1  0  0  0  0
 18 17  1  0  0  0  0
 19 20  1  0  0  0  0
 20 21  1  0  0  0  0
M  END
>  <REMARK>
 VINA RESULT:      -5.6      2.581      3.732
  9 active torsions:
  status: ('A' for Active; 'I' for Inactive)
    1  A    between atoms: O1_2  and  C1_3 
    2  A    between atoms: C1_3  and  C2_4 
    3  A    between atoms: C3_5  and  C4_6 
    4  A    between atoms: C4_6  and  O3_8 
    5  A    between atoms: O3_8  and  C5_9 
    6  A    between atoms: C9_13  and  C10_14 
    7  A    between atoms: C10_14  and  O4_15 
    8  A    between atoms: C10_14  and  O5_17 
    9  A    between atoms: O5_17  and  C11_18 

>  <TORSDO>
F 9

$$$$
../pdbqt/decoy.vina_out.53.pdbqt
 OpenBabel06052021513D

 21 21  0  0  1  0  0  0  0  0999 V2000
  -20.3230   67.9830   25.7760 C   0  0  0  0  0  0  0  0  0  0  0  0
  -19.7900   66.8500   25.1630 C   0  0  0  0  0  0  0  0  0  0  0  0
  -20.8740   66.0810   24.7450 C   0  0  0  0  0  0  0  0  0  0  0  0
  -20.8110   64.7300   24.0860 C   0  0  0  0  0  0  0  0  0  0  0  0
  -22.0210   66.7890   25.1100 C   0  0  0  0  0  0  0  0  0  0  0  0
  -21.6730   67.9300   25.7420 N   0  0  0  0  0  0  0  0  0  0  0  0
  -22.3410   68.6450   26.1070 H   0  0  0  0  0  0  0  0  0  0  0  0
  -23.3010   66.4410   24.8810 C   0  0  1  0  0  0  0  0  0  0  0  0
  -24.0480   67.1900   23.9670 O   0  0  0  0  0  0  0  0  0  0  0  0
  -25.0340   67.0370   23.8040 H   0  0  0  0  0  0  0  0  0  0  0  0
  -23.8590   65.3350   25.5400 O   0  0  0  0  0  0  0  0  0  0  0  0
  -23.6080   64.9790   26.8980 C   0  0  0  0  0  0  0  0  0  0  0  0
  -23.2730   63.4960   27.0130 C   0  0  0  0  0  0  0  0  0  0  0  0
  -18.3610   66.5210   24.9850 C   0  0  0  0  0  0  0  0  0  0  0  0
  -17.8160   65.6630   25.7320 O   0  0  0  0  0  0  0  0  0  0  0  0
  -17.6180   67.1640   23.9870 O   0  0  0  0  0  0  0  0  0  0  0  0
  -17.1070   66.4960   22.8340 C   0  0  0  0  0  0  0  0  0  0  0  0
  -18.2270   66.2020   21.8430 C   0  0  0  0  0  0  0  0  0  0  0  0
  -19.6140   69.0090   26.2830 C   0  0  0  0  0  0  0  0  0  0  0  0
  -18.7530   69.7980   25.5160 O   0  0  0  0  0  0  0  0  0  0  0  0
  -17.9650   70.3040   25.8950 H   0  0  0  0  0  0  0  0  0  0  0  0
  1 19  1  0  0  0  0
  2  1  2  0  0  0  0
  3  5  2  0  0  0  0
  3  2  1  0  0  0  0
  4  3  1  0  0  0  0
  5  6  1  0  0  0  0
  6  1  1  0  0  0  0
  6  7  1  0  0  0  0
  8  9  1  6  0  0  0
  8  5  1  0  0  0  0
  8 11  1  0  0  0  0
 10  9  1  0  0  0  0
 11 12  1  0  0  0  0
 12 13  1  0  0  0  0
 14  2  1  0  0  0  0
 14 15  2  0  0  0  0
 16 14  1  0  0  0  0
 17 16  1  0  0  0  0
 18 17  1  0  0  0  0
 20 21  1  0  0  0  0
 20 19  1  0  0  0  0
M  END
>  <REMARK>
 VINA RESULT:      -5.4      3.062      5.618
  9 active torsions:
  status: ('A' for Active; 'I' for Inactive)
    1  A    between atoms: O1_2  and  C1_3 
    2  A    between atoms: C1_3  and  C2_4 
    3  A    between atoms: C3_5  and  C4_6 
    4  A    between atoms: C4_6  and  O3_8 
    5  A    between atoms: O3_8  and  C5_9 
    6  A    between atoms: C9_13  and  C10_14 
    7  A    between atoms: C10_14  and  O4_15 
    8  A    between atoms: C10_14  and  O5_17 
    9  A    between atoms: O5_17  and  C11_18 

>  <TORSDO>
F 9

$$$$
