../pdbqt/decoy.vina_out.18.pdbqt
 OpenBabel06052021513D

 19 19  0  0  0  0  0  0  0  0999 V2000
  -22.4750   64.8400   25.1420 C   0  0  0  0  0  0  0  0  0  0  0  0
  -23.3360   65.6760   25.6520 N   0  0  0  0  0  0  0  0  0  0  0  0
  -24.7630   65.5370   25.6380 C   0  0  0  0  0  0  0  0  0  0  0  0
  -25.3800   64.7150   26.5860 C   0  0  0  0  0  0  0  0  0  0  0  0
  -26.7660   64.5440   26.5730 C   0  0  0  0  0  0  0  0  0  0  0  0
  -27.5420   65.1750   25.5960 C   0  0  0  0  0  0  0  0  0  0  0  0
  -26.9340   65.9760   24.6120 C   0  0  0  0  0  0  0  0  0  0  0  0
  -25.5370   66.1410   24.6340 C   0  0  0  0  0  0  0  0  0  0  0  0
  -27.7260   66.6120   23.5920 N   0  0  0  0  0  0  0  0  0  0  0  0
  -28.8100   67.1610   23.8770 O   0  0  0  0  0  0  0  0  0  0  0  0
  -27.2970   66.6340   22.2840 O   0  0  0  0  0  0  0  0  0  0  0  0
  -20.7310   65.1990   25.3470 S   0  0  0  0  0  0  0  0  0  0  0  0
  -20.8060   65.0240   26.7420 H   0  0  0  0  0  0  0  0  0  0  0  0
  -22.8720   63.6820   24.3770 N   0  0  0  0  0  0  0  0  0  0  0  0
  -23.2630   63.9650   23.4510 H   0  0  0  0  0  0  0  0  0  0  0  0
  -23.6300   63.1830   24.8970 H   0  0  0  0  0  0  0  0  0  0  0  0
  -21.7390   62.7630   24.2030 C   0  0  0  0  0  0  0  0  0  0  0  0
  -21.5130   62.4850   22.7400 C   0  0  0  0  0  0  0  0  0  0  0  0
  -20.3740   62.8160   22.1240 C   0  0  0  0  0  0  0  0  0  0  0  0
  1 12  1  0  0  0  0
  1  2  2  0  0  0  0
  3  2  1  0  0  0  0
  3  4  2  0  0  0  0
  5  4  1  0  0  0  0
  6  5  2  0  0  0  0
  7  8  2  0  0  0  0
  7  6  1  0  0  0  0
  8  3  1  0  0  0  0
  9 10  2  0  0  0  0
  9  7  1  0  0  0  0
 11  9  2  0  0  0  0
 12 13  1  0  0  0  0
 14 16  1  0  0  0  0
 14  1  1  0  0  0  0
 15 14  1  0  0  0  0
 17 14  1  0  0  0  0
 18 17  1  0  0  0  0
 19 18  2  0  0  0  0
M  END
>  <MODEL>
1

>  <REMARK>
 VINA RESULT:      -6.5      0.000      0.000
  6 active torsions:
  status: ('A' for Active; 'I' for Inactive)
    1  A    between atoms: S1_2  and  C1_3 
    2  A    between atoms: C1_3  and  N3_14 
    3  A    between atoms: N1_4  and  C2_5 
    4  A    between atoms: C6_9  and  N2_10 
    5  A    between atoms: N3_14  and  C8_17 
    6  A    between atoms: C8_17  and  C9_18 

>  <TORSDO>
F 6

$$$$
../pdbqt/decoy.vina_out.18.pdbqt
 OpenBabel06052021513D

 19 19  0  0  0  0  0  0  0  0999 V2000
  -26.1980   63.5460   28.0500 C   0  0  0  0  0  0  0  0  0  0  0  0
  -27.1130   64.4010   27.6830 N   0  0  0  0  0  0  0  0  0  0  0  0
  -27.4310   64.7760   26.3370 C   0  0  0  0  0  0  0  0  0  0  0  0
  -28.5870   64.2630   25.7390 C   0  0  0  0  0  0  0  0  0  0  0  0
  -28.9010   64.5940   24.4200 C   0  0  0  0  0  0  0  0  0  0  0  0
  -28.0500   65.4210   23.6810 C   0  0  0  0  0  0  0  0  0  0  0  0
  -26.8640   65.9150   24.2540 C   0  0  0  0  0  0  0  0  0  0  0  0
  -26.5560   65.5750   25.5840 C   0  0  0  0  0  0  0  0  0  0  0  0
  -25.9740   66.7520   23.4920 N   0  0  0  0  0  0  0  0  0  0  0  0
  -24.8170   66.9870   23.8980 O   0  0  0  0  0  0  0  0  0  0  0  0
  -26.3810   67.3010   22.2970 O   0  0  0  0  0  0  0  0  0  0  0  0
  -26.0320   63.1900   29.7980 S   0  0  0  0  0  0  0  0  0  0  0  0
  -26.3830   64.5050   30.1530 H   0  0  0  0  0  0  0  0  0  0  0  0
  -25.2860   62.9310   27.1140 N   0  0  0  0  0  0  0  0  0  0  0  0
  -25.4640   63.2740   26.1440 H   0  0  0  0  0  0  0  0  0  0  0  0
  -25.4540   61.8980   27.1170 H   0  0  0  0  0  0  0  0  0  0  0  0
  -23.8930   63.1820   27.5070 C   0  0  0  0  0  0  0  0  0  0  0  0
  -22.9930   63.1230   26.3020 C   0  0  0  0  0  0  0  0  0  0  0  0
  -23.2330   63.8430   25.2020 C   0  0  0  0  0  0  0  0  0  0  0  0
  1 12  1  0  0  0  0
  2  1  2  0  0  0  0
  3  2  1  0  0  0  0
  4  3  1  0  0  0  0
  5  4  2  0  0  0  0
  6  7  2  0  0  0  0
  6  5  1  0  0  0  0
  7  8  1  0  0  0  0
  8  3  2  0  0  0  0
  9 10  2  0  0  0  0
  9  7  1  0  0  0  0
 11  9  2  0  0  0  0
 12 13  1  0  0  0  0
 14 16  1  0  0  0  0
 14 17  1  0  0  0  0
 14  1  1  0  0  0  0
 15 14  1  0  0  0  0
 18 17  1  0  0  0  0
 19 18  2  0  0  0  0
M  END
>  <REMARK>
 VINA RESULT:      -6.5      2.923      3.665
  6 active torsions:
  status: ('A' for Active; 'I' for Inactive)
    1  A    between atoms: S1_2  and  C1_3 
    2  A    between atoms: C1_3  and  N3_14 
    3  A    between atoms: N1_4  and  C2_5 
    4  A    between atoms: C6_9  and  N2_10 
    5  A    between atoms: N3_14  and  C8_17 
    6  A    between atoms: C8_17  and  C9_18 

>  <TORSDO>
F 6

$$$$
../pdbqt/decoy.vina_out.18.pdbqt
 OpenBabel06052021513D

 19 19  0  0  0  0  0  0  0  0999 V2000
  -21.7500   66.2190   24.8350 C   0  0  0  0  0  0  0  0  0  0  0  0
  -22.6250   65.2510   24.8340 N   0  0  0  0  0  0  0  0  0  0  0  0
  -24.0460   65.3920   24.9590 C   0  0  0  0  0  0  0  0  0  0  0  0
  -24.6850   64.8930   26.0980 C   0  0  0  0  0  0  0  0  0  0  0  0
  -26.0710   64.9950   26.2280 C   0  0  0  0  0  0  0  0  0  0  0  0
  -26.8310   65.5760   25.2090 C   0  0  0  0  0  0  0  0  0  0  0  0
  -26.2090   66.0500   24.0390 C   0  0  0  0  0  0  0  0  0  0  0  0
  -24.8110   65.9410   23.9180 C   0  0  0  0  0  0  0  0  0  0  0  0
  -26.9880   66.6310   22.9770 N   0  0  0  0  0  0  0  0  0  0  0  0
  -26.4650   67.4170   22.1600 O   0  0  0  0  0  0  0  0  0  0  0  0
  -28.3230   66.3240   22.8400 O   0  0  0  0  0  0  0  0  0  0  0  0
  -20.0270   65.7960   24.5930 S   0  0  0  0  0  0  0  0  0  0  0  0
  -19.9520   66.5570   23.4110 H   0  0  0  0  0  0  0  0  0  0  0  0
  -22.1130   67.5960   25.0800 N   0  0  0  0  0  0  0  0  0  0  0  0
  -22.8510   67.6600   25.8150 H   0  0  0  0  0  0  0  0  0  0  0  0
  -22.5120   67.9970   24.2000 H   0  0  0  0  0  0  0  0  0  0  0  0
  -20.9310   68.3820   25.4600 C   0  0  0  0  0  0  0  0  0  0  0  0
  -21.0410   68.8290   26.8940 C   0  0  0  0  0  0  0  0  0  0  0  0
  -20.4740   68.1470   27.8940 C   0  0  0  0  0  0  0  0  0  0  0  0
  1 14  1  0  0  0  0
  2  1  2  0  0  0  0
  2  3  1  0  0  0  0
  3  4  2  0  0  0  0
  4  5  1  0  0  0  0
  6  5  2  0  0  0  0
  7  6  1  0  0  0  0
  8  7  2  0  0  0  0
  8  3  1  0  0  0  0
  9  7  1  0  0  0  0
 10  9  2  0  0  0  0
 11  9  2  0  0  0  0
 12  1  1  0  0  0  0
 13 12  1  0  0  0  0
 14 17  1  0  0  0  0
 14 15  1  0  0  0  0
 16 14  1  0  0  0  0
 17 18  1  0  0  0  0
 18 19  2  0  0  0  0
M  END
>  <REMARK>
 VINA RESULT:      -6.4      2.205      3.456
  6 active torsions:
  status: ('A' for Active; 'I' for Inactive)
    1  A    between atoms: S1_2  and  C1_3 
    2  A    between atoms: C1_3  and  N3_14 
    3  A    between atoms: N1_4  and  C2_5 
    4  A    between atoms: C6_9  and  N2_10 
    5  A    between atoms: N3_14  and  C8_17 
    6  A    between atoms: C8_17  and  C9_18 

>  <TORSDO>
F 6

$$$$
../pdbqt/decoy.vina_out.18.pdbqt
 OpenBabel06052021513D

 19 19  0  0  0  0  0  0  0  0999 V2000
  -25.8810   66.2010   24.1680 C   0  0  0  0  0  0  0  0  0  0  0  0
  -25.0610   66.0780   25.1750 N   0  0  0  0  0  0  0  0  0  0  0  0
  -24.9070   64.9210   26.0070 C   0  0  0  0  0  0  0  0  0  0  0  0
  -23.7750   64.1150   25.8550 C   0  0  0  0  0  0  0  0  0  0  0  0
  -23.6190   62.9680   26.6350 C   0  0  0  0  0  0  0  0  0  0  0  0
  -24.6050   62.6060   27.5570 C   0  0  0  0  0  0  0  0  0  0  0  0
  -25.7690   63.3840   27.6960 C   0  0  0  0  0  0  0  0  0  0  0  0
  -25.9170   64.5370   26.9040 C   0  0  0  0  0  0  0  0  0  0  0  0
  -26.7980   63.0050   28.6300 N   0  0  0  0  0  0  0  0  0  0  0  0
  -27.5510   63.8650   29.1310 O   0  0  0  0  0  0  0  0  0  0  0  0
  -26.9740   61.6850   28.9800 O   0  0  0  0  0  0  0  0  0  0  0  0
  -25.8420   67.7290   23.2330 S   0  0  0  0  0  0  0  0  0  0  0  0
  -26.2520   67.0790   22.0550 H   0  0  0  0  0  0  0  0  0  0  0  0
  -26.8470   65.1850   23.8210 N   0  0  0  0  0  0  0  0  0  0  0  0
  -26.9490   64.4900   24.5940 H   0  0  0  0  0  0  0  0  0  0  0  0
  -26.4990   64.6690   22.9800 H   0  0  0  0  0  0  0  0  0  0  0  0
  -28.1440   65.7940   23.4960 C   0  0  0  0  0  0  0  0  0  0  0  0
  -29.2430   65.1320   24.2850 C   0  0  0  0  0  0  0  0  0  0  0  0
  -28.9900   64.1940   25.2020 C   0  0  0  0  0  0  0  0  0  0  0  0
  1  2  2  0  0  0  0
  2  3  1  0  0  0  0
  3  8  1  0  0  0  0
  4  3  2  0  0  0  0
  4  5  1  0  0  0  0
  5  6  2  0  0  0  0
  6  7  1  0  0  0  0
  7  9  1  0  0  0  0
  8  7  2  0  0  0  0
  9 11  2  0  0  0  0
  9 10  2  0  0  0  0
 12  1  1  0  0  0  0
 13 12  1  0  0  0  0
 14  1  1  0  0  0  0
 14 15  1  0  0  0  0
 16 14  1  0  0  0  0
 17 14  1  0  0  0  0
 17 18  1  0  0  0  0
 18 19  2  0  0  0  0
M  END
>  <REMARK>
 VINA RESULT:      -6.1      3.639      5.524
  6 active torsions:
  status: ('A' for Active; 'I' for Inactive)
    1  A    between atoms: S1_2  and  C1_3 
    2  A    between atoms: C1_3  and  N3_14 
    3  A    between atoms: N1_4  and  C2_5 
    4  A    between atoms: C6_9  and  N2_10 
    5  A    between atoms: N3_14  and  C8_17 
    6  A    between atoms: C8_17  and  C9_18 

>  <TORSDO>
F 6

$$$$
../pdbqt/decoy.vina_out.18.pdbqt
 OpenBabel06052021513D

 19 19  0  0  0  0  0  0  0  0999 V2000
  -23.0940   65.4500   24.8610 C   0  0  0  0  0  0  0  0  0  0  0  0
  -24.1240   66.2500   24.8840 N   0  0  0  0  0  0  0  0  0  0  0  0
  -25.5030   65.8570   24.8730 C   0  0  0  0  0  0  0  0  0  0  0  0
  -26.2860   66.1370   23.7490 C   0  0  0  0  0  0  0  0  0  0  0  0
  -27.6380   65.7880   23.7300 C   0  0  0  0  0  0  0  0  0  0  0  0
  -28.2210   65.1770   24.8430 C   0  0  0  0  0  0  0  0  0  0  0  0
  -27.4580   64.9210   25.9970 C   0  0  0  0  0  0  0  0  0  0  0  0
  -26.0970   65.2780   26.0070 C   0  0  0  0  0  0  0  0  0  0  0  0
  -28.0580   64.3100   27.1540 N   0  0  0  0  0  0  0  0  0  0  0  0
  -28.9280   64.9150   27.8150 O   0  0  0  0  0  0  0  0  0  0  0  0
  -27.6900   63.0430   27.5470 O   0  0  0  0  0  0  0  0  0  0  0  0
  -21.4600   66.1790   24.9510 S   0  0  0  0  0  0  0  0  0  0  0  0
  -21.0220   65.4630   23.8210 H   0  0  0  0  0  0  0  0  0  0  0  0
  -23.2220   64.0190   24.7080 N   0  0  0  0  0  0  0  0  0  0  0  0
  -23.4560   63.7710   23.7200 H   0  0  0  0  0  0  0  0  0  0  0  0
  -24.0120   63.6890   25.3090 H   0  0  0  0  0  0  0  0  0  0  0  0
  -21.9910   63.3420   25.1360 C   0  0  0  0  0  0  0  0  0  0  0  0
  -21.6180   62.2660   24.1500 C   0  0  0  0  0  0  0  0  0  0  0  0
  -21.5100   62.5110   22.8410 C   0  0  0  0  0  0  0  0  0  0  0  0
  1  2  2  0  0  0  0
  1 12  1  0  0  0  0
  3  2  1  0  0  0  0
  3  8  2  0  0  0  0
  4  3  1  0  0  0  0
  5  4  2  0  0  0  0
  5  6  1  0  0  0  0
  6  7  2  0  0  0  0
  7  8  1  0  0  0  0
  7  9  1  0  0  0  0
  9 11  2  0  0  0  0
  9 10  2  0  0  0  0
 13 12  1  0  0  0  0
 14  1  1  0  0  0  0
 14 17  1  0  0  0  0
 14 16  1  0  0  0  0
 15 14  1  0  0  0  0
 18 17  1  0  0  0  0
 19 18  2  0  0  0  0
M  END
>  <REMARK>
 VINA RESULT:      -5.9      2.278      2.725
  6 active torsions:
  status: ('A' for Active; 'I' for Inactive)
    1  A    between atoms: S1_2  and  C1_3 
    2  A    between atoms: C1_3  and  N3_14 
    3  A    between atoms: N1_4  and  C2_5 
    4  A    between atoms: C6_9  and  N2_10 
    5  A    between atoms: N3_14  and  C8_17 
    6  A    between atoms: C8_17  and  C9_18 

>  <TORSDO>
F 6

$$$$
../pdbqt/decoy.vina_out.18.pdbqt
 OpenBabel06052021513D

 19 19  0  0  0  0  0  0  0  0999 V2000
  -23.2420   64.6480   25.7780 C   0  0  0  0  0  0  0  0  0  0  0  0
  -23.5230   63.5220   26.3730 N   0  0  0  0  0  0  0  0  0  0  0  0
  -24.7420   63.2070   27.0600 C   0  0  0  0  0  0  0  0  0  0  0  0
  -24.7520   62.1690   27.9970 C   0  0  0  0  0  0  0  0  0  0  0  0
  -25.9340   61.8280   28.6560 C   0  0  0  0  0  0  0  0  0  0  0  0
  -27.1210   62.5070   28.3660 C   0  0  0  0  0  0  0  0  0  0  0  0
  -27.1380   63.5290   27.3990 C   0  0  0  0  0  0  0  0  0  0  0  0
  -25.9410   63.8640   26.7390 C   0  0  0  0  0  0  0  0  0  0  0  0
  -28.3610   64.2190   27.0810 N   0  0  0  0  0  0  0  0  0  0  0  0
  -28.9350   64.9240   27.9370 O   0  0  0  0  0  0  0  0  0  0  0  0
  -28.9160   64.1180   25.8250 O   0  0  0  0  0  0  0  0  0  0  0  0
  -21.6720   64.7790   24.9250 S   0  0  0  0  0  0  0  0  0  0  0  0
  -22.2350   65.5640   23.9020 H   0  0  0  0  0  0  0  0  0  0  0  0
  -24.1150   65.7970   25.8310 N   0  0  0  0  0  0  0  0  0  0  0  0
  -23.8240   66.4490   26.5930 H   0  0  0  0  0  0  0  0  0  0  0  0
  -25.0840   65.4690   26.0530 H   0  0  0  0  0  0  0  0  0  0  0  0
  -24.1390   66.4890   24.5360 C   0  0  0  0  0  0  0  0  0  0  0  0
  -25.5300   66.4700   23.9600 C   0  0  0  0  0  0  0  0  0  0  0  0
  -26.0260   67.5020   23.2700 C   0  0  0  0  0  0  0  0  0  0  0  0
  1 14  1  0  0  0  0
  1  2  2  0  0  0  0
  2  3  1  0  0  0  0
  3  4  1  0  0  0  0
  4  5  2  0  0  0  0
  6  5  1  0  0  0  0
  7  6  2  0  0  0  0
  8  3  2  0  0  0  0
  8  7  1  0  0  0  0
  9  7  1  0  0  0  0
  9 10  2  0  0  0  0
 11  9  2  0  0  0  0
 12  1  1  0  0  0  0
 13 12  1  0  0  0  0
 14 16  1  0  0  0  0
 14 15  1  0  0  0  0
 17 14  1  0  0  0  0
 18 17  1  0  0  0  0
 19 18  2  0  0  0  0
M  END
>  <REMARK>
 VINA RESULT:      -5.8      2.782      3.974
  6 active torsions:
  status: ('A' for Active; 'I' for Inactive)
    1  A    between atoms: S1_2  and  C1_3 
    2  A    between atoms: C1_3  and  N3_14 
    3  A    between atoms: N1_4  and  C2_5 
    4  A    between atoms: C6_9  and  N2_10 
    5  A    between atoms: N3_14  and  C8_17 
    6  A    between atoms: C8_17  and  C9_18 

>  <TORSDO>
F 6

$$$$
../pdbqt/decoy.vina_out.18.pdbqt
 OpenBabel06052021513D

 19 19  0  0  0  0  0  0  0  0999 V2000
  -26.0380   63.4720   28.5070 C   0  0  0  0  0  0  0  0  0  0  0  0
  -26.2710   63.4330   27.2240 N   0  0  0  0  0  0  0  0  0  0  0  0
  -25.9250   64.4440   26.2680 C   0  0  0  0  0  0  0  0  0  0  0  0
  -24.6000   64.8840   26.1870 C   0  0  0  0  0  0  0  0  0  0  0  0
  -24.2470   65.8870   25.2820 C   0  0  0  0  0  0  0  0  0  0  0  0
  -25.2210   66.4730   24.4680 C   0  0  0  0  0  0  0  0  0  0  0  0
  -26.5650   66.0690   24.5630 C   0  0  0  0  0  0  0  0  0  0  0  0
  -26.9110   65.0580   25.4790 C   0  0  0  0  0  0  0  0  0  0  0  0
  -27.5760   66.6830   23.7420 N   0  0  0  0  0  0  0  0  0  0  0  0
  -28.5210   67.3130   24.2590 O   0  0  0  0  0  0  0  0  0  0  0  0
  -27.5130   66.5920   22.3690 O   0  0  0  0  0  0  0  0  0  0  0  0
  -26.5050   62.0500   29.4900 S   0  0  0  0  0  0  0  0  0  0  0  0
  -27.7550   62.6130   29.8050 H   0  0  0  0  0  0  0  0  0  0  0  0
  -25.4770   64.6310   29.1620 N   0  0  0  0  0  0  0  0  0  0  0  0
  -26.2230   65.1840   29.6380 H   0  0  0  0  0  0  0  0  0  0  0  0
  -25.0460   65.2480   28.4350 H   0  0  0  0  0  0  0  0  0  0  0  0
  -24.4360   64.2310   30.1180 C   0  0  0  0  0  0  0  0  0  0  0  0
  -23.1370   63.9780   29.3980 C   0  0  0  0  0  0  0  0  0  0  0  0
  -22.2640   64.9580   29.1470 C   0  0  0  0  0  0  0  0  0  0  0  0
  1 14  1  0  0  0  0
  1 12  1  0  0  0  0
  2  1  2  0  0  0  0
  3  2  1  0  0  0  0
  4  3  1  0  0  0  0
  5  4  2  0  0  0  0
  6  7  2  0  0  0  0
  6  5  1  0  0  0  0
  7  8  1  0  0  0  0
  8  3  2  0  0  0  0
  9 10  2  0  0  0  0
  9  7  1  0  0  0  0
 11  9  2  0  0  0  0
 12 13  1  0  0  0  0
 14 15  1  0  0  0  0
 14 17  1  0  0  0  0
 16 14  1  0  0  0  0
 18 17  1  0  0  0  0
 19 18  2  0  0  0  0
M  END
>  <REMARK>
 VINA RESULT:      -5.7      3.354      4.404
  6 active torsions:
  status: ('A' for Active; 'I' for Inactive)
    1  A    between atoms: S1_2  and  C1_3 
    2  A    between atoms: C1_3  and  N3_14 
    3  A    between atoms: N1_4  and  C2_5 
    4  A    between atoms: C6_9  and  N2_10 
    5  A    between atoms: N3_14  and  C8_17 
    6  A    between atoms: C8_17  and  C9_18 

>  <TORSDO>
F 6

$$$$
../pdbqt/decoy.vina_out.18.pdbqt
 OpenBabel06052021513D

 19 19  0  0  0  0  0  0  0  0999 V2000
  -21.9150   64.3200   26.5640 C   0  0  0  0  0  0  0  0  0  0  0  0
  -22.8420   63.9830   25.7100 N   0  0  0  0  0  0  0  0  0  0  0  0
  -24.1780   64.4990   25.6630 C   0  0  0  0  0  0  0  0  0  0  0  0
  -25.1340   64.0060   26.5560 C   0  0  0  0  0  0  0  0  0  0  0  0
  -26.4480   64.4750   26.5090 C   0  0  0  0  0  0  0  0  0  0  0  0
  -26.8220   65.4230   25.5520 C   0  0  0  0  0  0  0  0  0  0  0  0
  -25.8830   65.9020   24.6200 C   0  0  0  0  0  0  0  0  0  0  0  0
  -24.5610   65.4230   24.6760 C   0  0  0  0  0  0  0  0  0  0  0  0
  -26.2660   66.8640   23.6200 N   0  0  0  0  0  0  0  0  0  0  0  0
  -27.4180   67.3460   23.6080 O   0  0  0  0  0  0  0  0  0  0  0  0
  -25.3660   67.2740   22.6620 O   0  0  0  0  0  0  0  0  0  0  0  0
  -20.2920   63.5850   26.3770 S   0  0  0  0  0  0  0  0  0  0  0  0
  -20.4570   63.4460   24.9870 H   0  0  0  0  0  0  0  0  0  0  0  0
  -22.1640   65.2090   27.6750 N   0  0  0  0  0  0  0  0  0  0  0  0
  -23.0520   65.7410   27.5320 H   0  0  0  0  0  0  0  0  0  0  0  0
  -21.3860   65.9060   27.7250 H   0  0  0  0  0  0  0  0  0  0  0  0
  -22.2050   64.4590   28.9370 C   0  0  0  0  0  0  0  0  0  0  0  0
  -23.4390   64.8230   29.7200 C   0  0  0  0  0  0  0  0  0  0  0  0
  -23.4820   64.7440   31.0530 C   0  0  0  0  0  0  0  0  0  0  0  0
  1 14  1  0  0  0  0
  2  1  2  0  0  0  0
  3  2  1  0  0  0  0
  3  4  2  0  0  0  0
  5  4  1  0  0  0  0
  6  5  2  0  0  0  0
  7  8  2  0  0  0  0
  7  6  1  0  0  0  0
  8  3  1  0  0  0  0
  9  7  1  0  0  0  0
 10  9  2  0  0  0  0
 11  9  2  0  0  0  0
 12  1  1  0  0  0  0
 13 12  1  0  0  0  0
 14 16  1  0  0  0  0
 14 17  1  0  0  0  0
 15 14  1  0  0  0  0
 17 18  1  0  0  0  0
 18 19  2  0  0  0  0
M  END
>  <REMARK>
 VINA RESULT:      -5.5      2.210      3.654
  6 active torsions:
  status: ('A' for Active; 'I' for Inactive)
    1  A    between atoms: S1_2  and  C1_3 
    2  A    between atoms: C1_3  and  N3_14 
    3  A    between atoms: N1_4  and  C2_5 
    4  A    between atoms: C6_9  and  N2_10 
    5  A    between atoms: N3_14  and  C8_17 
    6  A    between atoms: C8_17  and  C9_18 

>  <TORSDO>
F 6

$$$$
../pdbqt/decoy.vina_out.18.pdbqt
 OpenBabel06052021513D

 19 19  0  0  0  0  0  0  0  0999 V2000
  -17.7860   66.3660   24.4240 C   0  0  0  0  0  0  0  0  0  0  0  0
  -17.6280   66.8540   23.2250 N   0  0  0  0  0  0  0  0  0  0  0  0
  -17.0230   66.1850   22.1110 C   0  0  0  0  0  0  0  0  0  0  0  0
  -17.8080   65.3610   21.2980 C   0  0  0  0  0  0  0  0  0  0  0  0
  -17.2330   64.6780   20.2250 C   0  0  0  0  0  0  0  0  0  0  0  0
  -15.8640   64.7970   19.9700 C   0  0  0  0  0  0  0  0  0  0  0  0
  -15.0510   65.5920   20.7990 C   0  0  0  0  0  0  0  0  0  0  0  0
  -15.6410   66.2750   21.8790 C   0  0  0  0  0  0  0  0  0  0  0  0
  -13.6370   65.7030   20.5530 N   0  0  0  0  0  0  0  0  0  0  0  0
  -13.1660   66.7100   19.9860 O   0  0  0  0  0  0  0  0  0  0  0  0
  -12.7780   64.7020   20.9470 O   0  0  0  0  0  0  0  0  0  0  0  0
  -18.6380   67.3730   25.6370 S   0  0  0  0  0  0  0  0  0  0  0  0
  -18.9550   68.3520   24.6770 H   0  0  0  0  0  0  0  0  0  0  0  0
  -17.2530   65.0830   24.8200 N   0  0  0  0  0  0  0  0  0  0  0  0
  -16.8090   65.1410   25.7640 H   0  0  0  0  0  0  0  0  0  0  0  0
  -16.5080   64.8080   24.1400 H   0  0  0  0  0  0  0  0  0  0  0  0
  -18.3060   64.0590   24.8040 C   0  0  0  0  0  0  0  0  0  0  0  0
  -17.8550   62.8610   24.0100 C   0  0  0  0  0  0  0  0  0  0  0  0
  -16.6110   62.7550   23.5330 C   0  0  0  0  0  0  0  0  0  0  0  0
  1 14  1  0  0  0  0
  1 12  1  0  0  0  0
  2  1  2  0  0  0  0
  3  2  1  0  0  0  0
  4  3  2  0  0  0  0
  5  4  1  0  0  0  0
  6  5  2  0  0  0  0
  6  7  1  0  0  0  0
  7  8  2  0  0  0  0
  8  3  1  0  0  0  0
  9  7  1  0  0  0  0
  9 11  2  0  0  0  0
 10  9  2  0  0  0  0
 13 12  1  0  0  0  0
 14 15  1  0  0  0  0
 16 14  1  0  0  0  0
 17 14  1  0  0  0  0
 18 17  1  0  0  0  0
 19 18  2  0  0  0  0
M  END
>  <REMARK>
 VINA RESULT:      -5.2      8.293      9.864
  6 active torsions:
  status: ('A' for Active; 'I' for Inactive)
    1  A    between atoms: S1_2  and  C1_3 
    2  A    between atoms: C1_3  and  N3_14 
    3  A    between atoms: N1_4  and  C2_5 
    4  A    between atoms: C6_9  and  N2_10 
    5  A    between atoms: N3_14  and  C8_17 
    6  A    between atoms: C8_17  and  C9_18 

>  <TORSDO>
F 6

$$$$
