../pdbqt/decoy.vina_out.2.pdbqt
 OpenBabel06052021513D

 20 22  0  0  0  0  0  0  0  0999 V2000
  -24.9040   66.9690   23.8390 C   0  0  0  0  0  0  0  0  0  0  0  0
  -26.1520   66.1940   24.1660 C   0  0  0  0  0  0  0  0  0  0  0  0
  -26.2510   65.5380   25.4060 C   0  0  0  0  0  0  0  0  0  0  0  0
  -27.3990   64.8040   25.7460 C   0  0  0  0  0  0  0  0  0  0  0  0
  -28.4510   64.7190   24.8230 C   0  0  0  0  0  0  0  0  0  0  0  0
  -28.3650   65.3650   23.5890 C   0  0  0  0  0  0  0  0  0  0  0  0
  -27.2250   66.1070   23.2480 C   0  0  0  0  0  0  0  0  0  0  0  0
  -27.4940   64.1330   27.0170 N   0  0  0  0  0  0  0  0  0  0  0  0
  -28.5180   64.1940   27.9120 C   0  0  0  0  0  0  0  0  0  0  0  0
  -28.3040   63.4560   29.0350 N   0  0  0  0  0  0  0  0  0  0  0  0
  -27.0900   62.9240   28.8120 C   0  0  0  0  0  0  0  0  0  0  0  0
  -26.3270   62.1030   29.6300 C   0  0  0  0  0  0  0  0  0  0  0  0
  -26.6060   63.3230   27.6140 C   0  0  0  0  0  0  0  0  0  0  0  0
  -26.7950   61.6760   30.8650 O   0  0  0  0  0  0  0  0  0  0  0  0
  -25.0900   61.7310   29.1850 N   0  0  0  0  0  0  0  0  0  0  0  0
  -24.6130   62.1580   27.9710 C   0  0  0  0  0  0  0  0  0  0  0  0
  -25.3720   62.9700   27.1740 N   0  0  0  0  0  0  0  0  0  0  0  0
  -27.1750   66.7570   21.9710 N   0  0  0  0  0  0  0  0  0  0  0  0
  -27.5900   67.7000   21.8090 H   0  0  0  0  0  0  0  0  0  0  0  0
  -26.7130   66.2910   21.1570 H   0  0  0  0  0  0  0  0  0  0  0  0
  1  2  1  0  0  0  0
  2  3  2  0  0  0  0
  3  4  1  0  0  0  0
  4  8  1  0  0  0  0
  5  4  2  0  0  0  0
  6  5  1  0  0  0  0
  7  6  2  0  0  0  0
  7  2  1  0  0  0  0
  8 13  1  0  0  0  0
  8  9  1  0  0  0  0
  9 10  2  0  0  0  0
 11 10  1  0  0  0  0
 11 12  1  0  0  0  0
 12 14  2  0  0  0  0
 13 11  2  0  0  0  0
 15 12  1  0  0  0  0
 16 15  2  0  0  0  0
 17 13  1  0  0  0  0
 17 16  1  0  0  0  0
 18  7  1  0  0  0  0
 19 18  1  0  0  0  0
 20 18  1  0  0  0  0
M  END
>  <MODEL>
1

>  <REMARK>
 VINA RESULT:      -8.8      0.000      0.000
  2 active torsions:
  status: ('A' for Active; 'I' for Inactive)
    1  A    between atoms: C4_4  and  N1_5 
    2  A    between atoms: C12_17  and  N5_18 

>  <TORSDO>
F 2

$$$$
../pdbqt/decoy.vina_out.2.pdbqt
 OpenBabel06052021513D

 20 22  0  0  0  0  0  0  0  0999 V2000
  -24.2690   62.1010   28.7570 C   0  0  0  0  0  0  0  0  0  0  0  0
  -25.6130   62.7290   28.4990 C   0  0  0  0  0  0  0  0  0  0  0  0
  -25.8490   63.3730   27.2720 C   0  0  0  0  0  0  0  0  0  0  0  0
  -27.0900   63.9710   26.9960 C   0  0  0  0  0  0  0  0  0  0  0  0
  -28.0960   63.9320   27.9710 C   0  0  0  0  0  0  0  0  0  0  0  0
  -27.8740   63.2960   29.1940 C   0  0  0  0  0  0  0  0  0  0  0  0
  -26.6410   62.6890   29.4710 C   0  0  0  0  0  0  0  0  0  0  0  0
  -27.3260   64.6310   25.7370 N   0  0  0  0  0  0  0  0  0  0  0  0
  -28.4540   64.5870   24.9780 C   0  0  0  0  0  0  0  0  0  0  0  0
  -28.3630   65.3070   23.8260 N   0  0  0  0  0  0  0  0  0  0  0  0
  -27.1180   65.8100   23.8900 C   0  0  0  0  0  0  0  0  0  0  0  0
  -26.4420   66.6010   22.9720 C   0  0  0  0  0  0  0  0  0  0  0  0
  -26.4990   65.4100   25.0240 C   0  0  0  0  0  0  0  0  0  0  0  0
  -27.0490   67.0280   21.7990 O   0  0  0  0  0  0  0  0  0  0  0  0
  -25.1520   66.9460   23.2560 N   0  0  0  0  0  0  0  0  0  0  0  0
  -24.5380   66.5190   24.4070 C   0  0  0  0  0  0  0  0  0  0  0  0
  -25.2120   65.7360   25.3020 N   0  0  0  0  0  0  0  0  0  0  0  0
  -26.4520   62.0450   30.7380 N   0  0  0  0  0  0  0  0  0  0  0  0
  -25.7980   62.4170   31.4600 H   0  0  0  0  0  0  0  0  0  0  0  0
  -26.9760   61.1720   30.9710 H   0  0  0  0  0  0  0  0  0  0  0  0
  2  1  1  0  0  0  0
  2  7  2  0  0  0  0
  3  2  1  0  0  0  0
  4  3  2  0  0  0  0
  4  5  1  0  0  0  0
  5  6  2  0  0  0  0
  6  7  1  0  0  0  0
  7 18  1  0  0  0  0
  8  4  1  0  0  0  0
  9  8  1  0  0  0  0
 10 11  1  0  0  0  0
 10  9  2  0  0  0  0
 11 13  2  0  0  0  0
 12 15  1  0  0  0  0
 12 11  1  0  0  0  0
 13 17  1  0  0  0  0
 13  8  1  0  0  0  0
 14 12  2  0  0  0  0
 15 16  1  0  0  0  0
 16 17  2  0  0  0  0
 18 20  1  0  0  0  0
 18 19  1  0  0  0  0
M  END
>  <REMARK>
 VINA RESULT:      -8.0      2.876      6.021
  2 active torsions:
  status: ('A' for Active; 'I' for Inactive)
    1  A    between atoms: C4_4  and  N1_5 
    2  A    between atoms: C12_17  and  N5_18 

>  <TORSDO>
F 2

$$$$
../pdbqt/decoy.vina_out.2.pdbqt
 OpenBabel06052021513D

 20 22  0  0  0  0  0  0  0  0999 V2000
  -28.6250   65.0610   25.8360 C   0  0  0  0  0  0  0  0  0  0  0  0
  -27.3100   65.4960   25.2480 C   0  0  0  0  0  0  0  0  0  0  0  0
  -26.1140   64.9680   25.7660 C   0  0  0  0  0  0  0  0  0  0  0  0
  -24.8680   65.3520   25.2430 C   0  0  0  0  0  0  0  0  0  0  0  0
  -24.8260   66.2860   24.1990 C   0  0  0  0  0  0  0  0  0  0  0  0
  -26.0060   66.8180   23.6760 C   0  0  0  0  0  0  0  0  0  0  0  0
  -27.2530   66.4320   24.1880 C   0  0  0  0  0  0  0  0  0  0  0  0
  -23.6460   64.8090   25.7790 N   0  0  0  0  0  0  0  0  0  0  0  0
  -23.0650   65.1000   26.9750 C   0  0  0  0  0  0  0  0  0  0  0  0
  -21.8980   64.4320   27.1900 N   0  0  0  0  0  0  0  0  0  0  0  0
  -21.7640   63.7030   26.0680 C   0  0  0  0  0  0  0  0  0  0  0  0
  -20.7410   62.8450   25.6960 C   0  0  0  0  0  0  0  0  0  0  0  0
  -22.8010   63.9250   25.2280 C   0  0  0  0  0  0  0  0  0  0  0  0
  -19.6630   62.5960   26.5350 O   0  0  0  0  0  0  0  0  0  0  0  0
  -20.8200   62.2510   24.4680 N   0  0  0  0  0  0  0  0  0  0  0  0
  -21.8740   62.5000   23.6250 C   0  0  0  0  0  0  0  0  0  0  0  0
  -22.8760   63.3520   24.0010 N   0  0  0  0  0  0  0  0  0  0  0  0
  -28.4420   67.0010   23.6230 N   0  0  0  0  0  0  0  0  0  0  0  0
  -28.8190   66.7000   22.6980 H   0  0  0  0  0  0  0  0  0  0  0  0
  -28.9680   67.7440   24.1350 H   0  0  0  0  0  0  0  0  0  0  0  0
  2  3  2  0  0  0  0
  2  1  1  0  0  0  0
  4  3  1  0  0  0  0
  4  8  1  0  0  0  0
  5  4  2  0  0  0  0
  6  7  2  0  0  0  0
  6  5  1  0  0  0  0
  7  2  1  0  0  0  0
  8  9  1  0  0  0  0
  9 10  2  0  0  0  0
 11 10  1  0  0  0  0
 12 11  1  0  0  0  0
 12 14  2  0  0  0  0
 13  8  1  0  0  0  0
 13 11  2  0  0  0  0
 15 12  1  0  0  0  0
 16 17  1  0  0  0  0
 16 15  2  0  0  0  0
 17 13  1  0  0  0  0
 18 20  1  0  0  0  0
 18  7  1  0  0  0  0
 19 18  1  0  0  0  0
M  END
>  <REMARK>
 VINA RESULT:      -7.8      3.622      4.790
  2 active torsions:
  status: ('A' for Active; 'I' for Inactive)
    1  A    between atoms: C4_4  and  N1_5 
    2  A    between atoms: C12_17  and  N5_18 

>  <TORSDO>
F 2

$$$$
../pdbqt/decoy.vina_out.2.pdbqt
 OpenBabel06052021513D

 20 22  0  0  0  0  0  0  0  0999 V2000
  -25.6620   61.6670   28.5910 C   0  0  0  0  0  0  0  0  0  0  0  0
  -25.5920   62.8310   27.6390 C   0  0  0  0  0  0  0  0  0  0  0  0
  -24.3430   63.2400   27.1420 C   0  0  0  0  0  0  0  0  0  0  0  0
  -24.2370   64.3230   26.2520 C   0  0  0  0  0  0  0  0  0  0  0  0
  -25.4000   65.0070   25.8730 C   0  0  0  0  0  0  0  0  0  0  0  0
  -26.6470   64.6110   26.3600 C   0  0  0  0  0  0  0  0  0  0  0  0
  -26.7590   63.5260   27.2410 C   0  0  0  0  0  0  0  0  0  0  0  0
  -22.9540   64.7390   25.7470 N   0  0  0  0  0  0  0  0  0  0  0  0
  -22.2460   65.8470   26.0980 C   0  0  0  0  0  0  0  0  0  0  0  0
  -21.0670   65.9740   25.4280 N   0  0  0  0  0  0  0  0  0  0  0  0
  -21.0640   64.8920   24.6300 C   0  0  0  0  0  0  0  0  0  0  0  0
  -20.1260   64.5020   23.6850 C   0  0  0  0  0  0  0  0  0  0  0  0
  -22.1830   64.1570   24.8170 C   0  0  0  0  0  0  0  0  0  0  0  0
  -18.9670   65.2350   23.4690 O   0  0  0  0  0  0  0  0  0  0  0  0
  -20.3810   63.3700   22.9640 N   0  0  0  0  0  0  0  0  0  0  0  0
  -21.5290   62.6450   23.1600 C   0  0  0  0  0  0  0  0  0  0  0  0
  -22.4490   63.0420   24.0910 N   0  0  0  0  0  0  0  0  0  0  0  0
  -28.0570   63.1490   27.7180 N   0  0  0  0  0  0  0  0  0  0  0  0
  -28.9190   63.2700   27.1430 H   0  0  0  0  0  0  0  0  0  0  0  0
  -28.1720   62.7380   28.6720 H   0  0  0  0  0  0  0  0  0  0  0  0
  2  1  1  0  0  0  0
  3  2  2  0  0  0  0
  4  3  1  0  0  0  0
  5  4  2  0  0  0  0
  5  6  1  0  0  0  0
  6  7  2  0  0  0  0
  7  2  1  0  0  0  0
  7 18  1  0  0  0  0
  8  9  1  0  0  0  0
  8  4  1  0  0  0  0
 10  9  2  0  0  0  0
 11 13  2  0  0  0  0
 11 10  1  0  0  0  0
 12 11  1  0  0  0  0
 13  8  1  0  0  0  0
 14 12  2  0  0  0  0
 15 16  1  0  0  0  0
 15 12  1  0  0  0  0
 16 17  2  0  0  0  0
 17 13  1  0  0  0  0
 18 20  1  0  0  0  0
 19 18  1  0  0  0  0
M  END
>  <REMARK>
 VINA RESULT:      -7.6      4.443      6.398
  2 active torsions:
  status: ('A' for Active; 'I' for Inactive)
    1  A    between atoms: C4_4  and  N1_5 
    2  A    between atoms: C12_17  and  N5_18 

>  <TORSDO>
F 2

$$$$
../pdbqt/decoy.vina_out.2.pdbqt
 OpenBabel06052021513D

 20 22  0  0  0  0  0  0  0  0999 V2000
  -25.0750   61.9160   28.2610 C   0  0  0  0  0  0  0  0  0  0  0  0
  -25.0200   63.0660   27.2920 C   0  0  0  0  0  0  0  0  0  0  0  0
  -23.8010   63.3850   26.6690 C   0  0  0  0  0  0  0  0  0  0  0  0
  -23.7100   64.4520   25.7600 C   0  0  0  0  0  0  0  0  0  0  0  0
  -24.8560   65.2130   25.4870 C   0  0  0  0  0  0  0  0  0  0  0  0
  -26.0720   64.9070   26.1000 C   0  0  0  0  0  0  0  0  0  0  0  0
  -26.1700   63.8370   27.0010 C   0  0  0  0  0  0  0  0  0  0  0  0
  -22.4580   64.7750   25.1260 N   0  0  0  0  0  0  0  0  0  0  0  0
  -21.6600   63.9470   24.3980 C   0  0  0  0  0  0  0  0  0  0  0  0
  -20.5260   64.5450   23.9410 N   0  0  0  0  0  0  0  0  0  0  0  0
  -20.6410   65.7980   24.4170 C   0  0  0  0  0  0  0  0  0  0  0  0
  -19.7630   66.8650   24.3020 C   0  0  0  0  0  0  0  0  0  0  0  0
  -21.7880   65.9370   25.1210 C   0  0  0  0  0  0  0  0  0  0  0  0
  -18.5790   66.7540   23.5870 O   0  0  0  0  0  0  0  0  0  0  0  0
  -20.0960   68.0350   24.9240 N   0  0  0  0  0  0  0  0  0  0  0  0
  -21.2580   68.1510   25.6440 C   0  0  0  0  0  0  0  0  0  0  0  0
  -22.1150   67.0920   25.7540 N   0  0  0  0  0  0  0  0  0  0  0  0
  -27.4380   63.5550   27.6080 N   0  0  0  0  0  0  0  0  0  0  0  0
  -27.9550   62.6670   27.4300 H   0  0  0  0  0  0  0  0  0  0  0  0
  -27.8810   64.2460   28.2550 H   0  0  0  0  0  0  0  0  0  0  0  0
  2  1  1  0  0  0  0
  3  2  2  0  0  0  0
  4  3  1  0  0  0  0
  5  4  2  0  0  0  0
  5  6  1  0  0  0  0
  6  7  2  0  0  0  0
  7  2  1  0  0  0  0
  7 18  1  0  0  0  0
  8  4  1  0  0  0  0
  9  8  1  0  0  0  0
 10  9  2  0  0  0  0
 10 11  1  0  0  0  0
 11 13  2  0  0  0  0
 12 11  1  0  0  0  0
 12 15  1  0  0  0  0
 13  8  1  0  0  0  0
 13 17  1  0  0  0  0
 14 12  2  0  0  0  0
 15 16  1  0  0  0  0
 16 17  2  0  0  0  0
 18 20  1  0  0  0  0
 19 18  1  0  0  0  0
M  END
>  <REMARK>
 VINA RESULT:      -7.6      4.723      6.940
  2 active torsions:
  status: ('A' for Active; 'I' for Inactive)
    1  A    between atoms: C4_4  and  N1_5 
    2  A    between atoms: C12_17  and  N5_18 

>  <TORSDO>
F 2

$$$$
../pdbqt/decoy.vina_out.2.pdbqt
 OpenBabel06052021513D

 20 22  0  0  0  0  0  0  0  0999 V2000
  -21.2160   62.4150   25.1680 C   0  0  0  0  0  0  0  0  0  0  0  0
  -22.1030   63.1920   26.1030 C   0  0  0  0  0  0  0  0  0  0  0  0
  -23.3470   63.6600   25.6430 C   0  0  0  0  0  0  0  0  0  0  0  0
  -24.2020   64.3900   26.4870 C   0  0  0  0  0  0  0  0  0  0  0  0
  -23.7930   64.6620   27.7990 C   0  0  0  0  0  0  0  0  0  0  0  0
  -22.5600   64.2030   28.2670 C   0  0  0  0  0  0  0  0  0  0  0  0
  -21.7080   63.4660   27.4330 C   0  0  0  0  0  0  0  0  0  0  0  0
  -25.4740   64.8680   26.0100 N   0  0  0  0  0  0  0  0  0  0  0  0
  -26.7110   64.4860   26.4260 C   0  0  0  0  0  0  0  0  0  0  0  0
  -27.7260   65.1110   25.7680 N   0  0  0  0  0  0  0  0  0  0  0  0
  -27.0700   65.9100   24.9080 C   0  0  0  0  0  0  0  0  0  0  0  0
  -27.5790   66.7680   23.9440 C   0  0  0  0  0  0  0  0  0  0  0  0
  -25.7320   65.7680   25.0490 C   0  0  0  0  0  0  0  0  0  0  0  0
  -28.9460   66.9360   23.7740 O   0  0  0  0  0  0  0  0  0  0  0  0
  -26.6900   67.4430   23.1570 N   0  0  0  0  0  0  0  0  0  0  0  0
  -25.3360   67.2750   23.3080 C   0  0  0  0  0  0  0  0  0  0  0  0
  -24.8450   66.4230   24.2590 N   0  0  0  0  0  0  0  0  0  0  0  0
  -20.4500   63.0120   27.9520 N   0  0  0  0  0  0  0  0  0  0  0  0
  -19.8240   63.6280   28.5140 H   0  0  0  0  0  0  0  0  0  0  0  0
  -20.1260   62.0350   27.7740 H   0  0  0  0  0  0  0  0  0  0  0  0
  1  2  1  0  0  0  0
  2  7  1  0  0  0  0
  3  2  2  0  0  0  0
  3  4  1  0  0  0  0
  4  5  2  0  0  0  0
  5  6  1  0  0  0  0
  7 18  1  0  0  0  0
  7  6  2  0  0  0  0
  8  9  1  0  0  0  0
  8  4  1  0  0  0  0
 10  9  2  0  0  0  0
 11 13  2  0  0  0  0
 11 10  1  0  0  0  0
 12 11  1  0  0  0  0
 13  8  1  0  0  0  0
 14 12  2  0  0  0  0
 15 16  1  0  0  0  0
 15 12  1  0  0  0  0
 16 17  2  0  0  0  0
 17 13  1  0  0  0  0
 18 19  1  0  0  0  0
 20 18  1  0  0  0  0
M  END
>  <REMARK>
 VINA RESULT:      -7.5      3.367      6.087
  2 active torsions:
  status: ('A' for Active; 'I' for Inactive)
    1  A    between atoms: C4_4  and  N1_5 
    2  A    between atoms: C12_17  and  N5_18 

>  <TORSDO>
F 2

$$$$
../pdbqt/decoy.vina_out.2.pdbqt
 OpenBabel06052021513D

 20 22  0  0  0  0  0  0  0  0999 V2000
  -25.1210   63.9600   27.9790 C   0  0  0  0  0  0  0  0  0  0  0  0
  -24.8870   64.8180   26.7640 C   0  0  0  0  0  0  0  0  0  0  0  0
  -23.5880   65.2780   26.4860 C   0  0  0  0  0  0  0  0  0  0  0  0
  -23.3310   66.0820   25.3620 C   0  0  0  0  0  0  0  0  0  0  0  0
  -24.3950   66.4350   24.5210 C   0  0  0  0  0  0  0  0  0  0  0  0
  -25.6890   65.9850   24.7870 C   0  0  0  0  0  0  0  0  0  0  0  0
  -25.9500   65.1750   25.9010 C   0  0  0  0  0  0  0  0  0  0  0  0
  -21.9990   66.5530   25.0830 N   0  0  0  0  0  0  0  0  0  0  0  0
  -21.5000   67.8010   25.2950 C   0  0  0  0  0  0  0  0  0  0  0  0
  -20.2020   67.9410   24.9100 N   0  0  0  0  0  0  0  0  0  0  0  0
  -19.9000   66.7180   24.4390 C   0  0  0  0  0  0  0  0  0  0  0  0
  -18.7190   66.2630   23.8730 C   0  0  0  0  0  0  0  0  0  0  0  0
  -20.9650   65.8910   24.5410 C   0  0  0  0  0  0  0  0  0  0  0  0
  -17.6080   67.0870   23.7540 O   0  0  0  0  0  0  0  0  0  0  0  0
  -18.6820   64.9730   23.4260 N   0  0  0  0  0  0  0  0  0  0  0  0
  -19.7780   64.1530   23.5270 C   0  0  0  0  0  0  0  0  0  0  0  0
  -20.9390   64.6150   24.0830 N   0  0  0  0  0  0  0  0  0  0  0  0
  -27.2920   64.7310   26.1400 N   0  0  0  0  0  0  0  0  0  0  0  0
  -27.9160   64.4050   25.3700 H   0  0  0  0  0  0  0  0  0  0  0  0
  -27.6840   64.7250   27.1080 H   0  0  0  0  0  0  0  0  0  0  0  0
  2  1  1  0  0  0  0
  3  2  1  0  0  0  0
  4  3  2  0  0  0  0
  5  6  2  0  0  0  0
  5  4  1  0  0  0  0
  6  7  1  0  0  0  0
  7 18  1  0  0  0  0
  7  2  2  0  0  0  0
  8  9  1  0  0  0  0
  8  4  1  0  0  0  0
 10  9  2  0  0  0  0
 11 13  2  0  0  0  0
 11 10  1  0  0  0  0
 12 11  1  0  0  0  0
 13  8  1  0  0  0  0
 14 12  2  0  0  0  0
 15 16  1  0  0  0  0
 15 12  1  0  0  0  0
 16 17  2  0  0  0  0
 17 13  1  0  0  0  0
 18 20  1  0  0  0  0
 19 18  1  0  0  0  0
M  END
>  <REMARK>
 VINA RESULT:      -7.4      5.262      7.085
  2 active torsions:
  status: ('A' for Active; 'I' for Inactive)
    1  A    between atoms: C4_4  and  N1_5 
    2  A    between atoms: C12_17  and  N5_18 

>  <TORSDO>
F 2

$$$$
../pdbqt/decoy.vina_out.2.pdbqt
 OpenBabel06052021513D

 20 22  0  0  0  0  0  0  0  0999 V2000
  -20.2800   69.0230   25.8080 C   0  0  0  0  0  0  0  0  0  0  0  0
  -20.8180   67.7010   25.3300 C   0  0  0  0  0  0  0  0  0  0  0  0
  -22.1840   67.4120   25.4960 C   0  0  0  0  0  0  0  0  0  0  0  0
  -22.7220   66.1880   25.0640 C   0  0  0  0  0  0  0  0  0  0  0  0
  -21.8730   65.2430   24.4710 C   0  0  0  0  0  0  0  0  0  0  0  0
  -20.5160   65.5180   24.3000 C   0  0  0  0  0  0  0  0  0  0  0  0
  -19.9750   66.7410   24.7220 C   0  0  0  0  0  0  0  0  0  0  0  0
  -24.1220   65.8960   25.2390 N   0  0  0  0  0  0  0  0  0  0  0  0
  -24.7010   65.1930   26.2490 C   0  0  0  0  0  0  0  0  0  0  0  0
  -26.0510   65.0730   26.1250 N   0  0  0  0  0  0  0  0  0  0  0  0
  -26.3020   65.7340   24.9810 C   0  0  0  0  0  0  0  0  0  0  0  0
  -27.5080   65.9200   24.3210 C   0  0  0  0  0  0  0  0  0  0  0  0
  -25.1580   66.2240   24.4520 C   0  0  0  0  0  0  0  0  0  0  0  0
  -28.6990   65.4290   24.8380 O   0  0  0  0  0  0  0  0  0  0  0  0
  -27.4880   66.5990   23.1360 N   0  0  0  0  0  0  0  0  0  0  0  0
  -26.3140   67.0780   22.6100 C   0  0  0  0  0  0  0  0  0  0  0  0
  -25.1310   66.8850   23.2680 N   0  0  0  0  0  0  0  0  0  0  0  0
  -18.5760   66.9870   24.5280 N   0  0  0  0  0  0  0  0  0  0  0  0
  -17.8480   66.2770   24.7610 H   0  0  0  0  0  0  0  0  0  0  0  0
  -18.2470   67.9000   24.1410 H   0  0  0  0  0  0  0  0  0  0  0  0
  2  3  1  0  0  0  0
  2  1  1  0  0  0  0
  4  8  1  0  0  0  0
  4  3  2  0  0  0  0
  5  4  1  0  0  0  0
  6  5  2  0  0  0  0
  6  7  1  0  0  0  0
  7  2  2  0  0  0  0
  8  9  1  0  0  0  0
 10  9  2  0  0  0  0
 11 10  1  0  0  0  0
 12 14  2  0  0  0  0
 12 11  1  0  0  0  0
 13 11  2  0  0  0  0
 13  8  1  0  0  0  0
 15 12  1  0  0  0  0
 16 15  1  0  0  0  0
 16 17  2  0  0  0  0
 17 13  1  0  0  0  0
 18  7  1  0  0  0  0
 18 19  1  0  0  0  0
 20 18  1  0  0  0  0
M  END
>  <REMARK>
 VINA RESULT:      -7.4      3.956      6.209
  2 active torsions:
  status: ('A' for Active; 'I' for Inactive)
    1  A    between atoms: C4_4  and  N1_5 
    2  A    between atoms: C12_17  and  N5_18 

>  <TORSDO>
F 2

$$$$
../pdbqt/decoy.vina_out.2.pdbqt
 OpenBabel06052021513D

 20 22  0  0  0  0  0  0  0  0999 V2000
  -21.3360   62.0780   24.5160 C   0  0  0  0  0  0  0  0  0  0  0  0
  -21.9560   63.2110   25.2900 C   0  0  0  0  0  0  0  0  0  0  0  0
  -23.0480   63.9040   24.7400 C   0  0  0  0  0  0  0  0  0  0  0  0
  -23.6520   64.9670   25.4330 C   0  0  0  0  0  0  0  0  0  0  0  0
  -23.1410   65.3430   26.6820 C   0  0  0  0  0  0  0  0  0  0  0  0
  -22.0560   64.6630   27.2380 C   0  0  0  0  0  0  0  0  0  0  0  0
  -21.4560   63.5950   26.5560 C   0  0  0  0  0  0  0  0  0  0  0  0
  -24.7700   65.6760   24.8640 N   0  0  0  0  0  0  0  0  0  0  0  0
  -24.7370   66.6540   23.9190 C   0  0  0  0  0  0  0  0  0  0  0  0
  -25.9660   67.1420   23.5970 N   0  0  0  0  0  0  0  0  0  0  0  0
  -26.7840   66.4270   24.3880 C   0  0  0  0  0  0  0  0  0  0  0  0
  -28.1620   66.5070   24.5280 C   0  0  0  0  0  0  0  0  0  0  0  0
  -26.0770   65.5540   25.1420 C   0  0  0  0  0  0  0  0  0  0  0  0
  -28.9160   67.3910   23.7690 O   0  0  0  0  0  0  0  0  0  0  0  0
  -28.7590   65.6890   25.4450 N   0  0  0  0  0  0  0  0  0  0  0  0
  -28.0210   64.8200   26.2090 C   0  0  0  0  0  0  0  0  0  0  0  0
  -26.6630   64.7520   26.0660 N   0  0  0  0  0  0  0  0  0  0  0  0
  -20.3440   62.9210   27.1610 N   0  0  0  0  0  0  0  0  0  0  0  0
  -19.3680   63.2840   27.0930 H   0  0  0  0  0  0  0  0  0  0  0  0
  -20.4890   62.0340   27.6940 H   0  0  0  0  0  0  0  0  0  0  0  0
  1  2  1  0  0  0  0
  2  7  1  0  0  0  0
  3  2  2  0  0  0  0
  3  4  1  0  0  0  0
  4  5  2  0  0  0  0
  5  6  1  0  0  0  0
  7 18  1  0  0  0  0
  7  6  2  0  0  0  0
  8 13  1  0  0  0  0
  8  4  1  0  0  0  0
  9  8  1  0  0  0  0
 10  9  2  0  0  0  0
 10 11  1  0  0  0  0
 11 12  1  0  0  0  0
 11 13  2  0  0  0  0
 12 15  1  0  0  0  0
 13 17  1  0  0  0  0
 14 12  2  0  0  0  0
 15 16  1  0  0  0  0
 17 16  2  0  0  0  0
 18 20  1  0  0  0  0
 19 18  1  0  0  0  0
M  END
>  <REMARK>
 VINA RESULT:      -7.3      3.646      6.087
  2 active torsions:
  status: ('A' for Active; 'I' for Inactive)
    1  A    between atoms: C4_4  and  N1_5 
    2  A    between atoms: C12_17  and  N5_18 

>  <TORSDO>
F 2

$$$$
