../pdbqt/decoy.vina_out.57.pdbqt
 OpenBabel06052021513D

 24 26  0  0  1  0  0  0  0  0999 V2000
  -26.4000   66.1150   24.3450 C   0  0  0  0  0  0  0  0  0  0  0  0
  -27.4660   65.3210   24.5520 C   0  0  0  0  0  0  0  0  0  0  0  0
  -27.2960   64.6100   25.8120 C   0  0  0  0  0  0  0  0  0  0  0  0
  -28.1250   63.6800   26.4460 C   0  0  0  0  0  0  0  0  0  0  0  0
  -27.7120   63.1520   27.6800 C   0  0  0  0  0  0  0  0  0  0  0  0
  -26.4920   63.5560   28.2560 C   0  0  0  0  0  0  0  0  0  0  0  0
  -25.6760   64.4910   27.5990 C   0  0  0  0  0  0  0  0  0  0  0  0
  -26.1010   65.0000   26.3700 C   0  0  0  0  0  0  0  0  0  0  0  0
  -25.4100   65.9910   25.4890 C   0  0  1  0  0  0  0  0  0  0  0  0
  -24.0640   65.4700   25.0290 C   0  0  0  0  0  0  0  0  0  0  0  0
  -23.9150   64.1510   24.5600 C   0  0  0  0  0  0  0  0  0  0  0  0
  -22.6640   63.6840   24.1470 C   0  0  0  0  0  0  0  0  0  0  0  0
  -21.5500   64.5250   24.2020 C   0  0  0  0  0  0  0  0  0  0  0  0
  -21.6850   65.8330   24.6730 C   0  0  0  0  0  0  0  0  0  0  0  0
  -22.9340   66.3050   25.0870 C   0  0  0  0  0  0  0  0  0  0  0  0
  -26.1980   67.0070   23.1750 C   0  0  0  0  0  0  0  0  0  0  0  0
  -26.7040   66.6480   21.8870 N   0  0  0  0  0  0  0  0  0  0  0  0
  -26.5840   67.2990   21.0800 H   0  0  0  0  0  0  0  0  0  0  0  0
  -27.1650   65.7290   21.7170 H   0  0  0  0  0  0  0  0  0  0  0  0
  -25.5870   68.1010   23.3040 O   0  0  0  0  0  0  0  0  0  0  0  0
  -28.5940   65.1940   23.6730 N   0  0  0  0  0  0  0  0  0  0  0  0
  -28.9520   66.1450   23.4310 H   0  0  0  0  0  0  0  0  0  0  0  0
  -28.3220   64.7040   22.7930 H   0  0  0  0  0  0  0  0  0  0  0  0
  -29.3400   64.6320   24.1410 H   0  0  0  0  0  0  0  0  0  0  0  0
  1  2  2  0  0  0  0
  1  9  1  0  0  0  0
  2  3  1  0  0  0  0
  3  8  2  0  0  0  0
  3  4  1  0  0  0  0
  4  5  2  0  0  0  0
  5  6  1  0  0  0  0
  7  6  2  0  0  0  0
  8  7  1  0  0  0  0
  9 10  1  6  0  0  0
  9  8  1  0  0  0  0
 10 15  1  0  0  0  0
 11 10  2  0  0  0  0
 12 13  2  0  0  0  0
 12 11  1  0  0  0  0
 13 14  1  0  0  0  0
 14 15  2  0  0  0  0
 16 20  2  0  0  0  0
 16  1  1  0  0  0  0
 17 16  1  0  0  0  0
 18 17  1  0  0  0  0
 19 17  1  0  0  0  0
 21 24  1  0  0  0  0
 21  2  1  0  0  0  0
 22 21  1  0  0  0  0
 23 21  1  0  0  0  0
M  END
>  <MODEL>
1

>  <REMARK>
 VINA RESULT:      -8.9      0.000      0.000
  3 active torsions:
  status: ('A' for Active; 'I' for Inactive)
       I    between atoms: N1_1  and  C1_2 
    1  A    between atoms: C1_2  and  C2_4 
    2  A    between atoms: C3_5  and  N2_6 
    3  A    between atoms: C10_13  and  C11_14 

>  <TORSDO>
F 3

$$$$
../pdbqt/decoy.vina_out.57.pdbqt
 OpenBabel06052021513D

 24 26  0  0  1  0  0  0  0  0999 V2000
  -24.6060   65.5310   25.5370 C   0  0  0  0  0  0  0  0  0  0  0  0
  -25.9080   65.2340   25.6990 C   0  0  0  0  0  0  0  0  0  0  0  0
  -26.0370   64.1620   26.6760 C   0  0  0  0  0  0  0  0  0  0  0  0
  -27.1750   63.5160   27.1680 C   0  0  0  0  0  0  0  0  0  0  0  0
  -27.0060   62.5070   28.1310 C   0  0  0  0  0  0  0  0  0  0  0  0
  -25.7170   62.1620   28.5810 C   0  0  0  0  0  0  0  0  0  0  0  0
  -24.5890   62.8240   28.0720 C   0  0  0  0  0  0  0  0  0  0  0  0
  -24.7780   63.8210   27.1110 C   0  0  0  0  0  0  0  0  0  0  0  0
  -23.7430   64.6530   26.4250 C   0  0  1  0  0  0  0  0  0  0  0  0
  -22.7880   63.7910   25.6250 C   0  0  0  0  0  0  0  0  0  0  0  0
  -23.0110   63.5320   24.2590 C   0  0  0  0  0  0  0  0  0  0  0  0
  -22.1240   62.7270   23.5380 C   0  0  0  0  0  0  0  0  0  0  0  0
  -21.0120   62.1690   24.1730 C   0  0  0  0  0  0  0  0  0  0  0  0
  -20.7850   62.4130   25.5300 C   0  0  0  0  0  0  0  0  0  0  0  0
  -21.6690   63.2180   26.2550 C   0  0  0  0  0  0  0  0  0  0  0  0
  -24.0620   66.5730   24.6310 C   0  0  0  0  0  0  0  0  0  0  0  0
  -22.7650   67.1310   24.8550 N   0  0  0  0  0  0  0  0  0  0  0  0
  -22.3800   67.8400   24.1920 H   0  0  0  0  0  0  0  0  0  0  0  0
  -22.1960   66.8750   25.6900 H   0  0  0  0  0  0  0  0  0  0  0  0
  -24.7320   66.9740   23.6430 O   0  0  0  0  0  0  0  0  0  0  0  0
  -27.0000   65.8710   25.0180 N   0  0  0  0  0  0  0  0  0  0  0  0
  -27.8530   65.8310   25.6200 H   0  0  0  0  0  0  0  0  0  0  0  0
  -26.7770   66.8700   24.8190 H   0  0  0  0  0  0  0  0  0  0  0  0
  -27.1740   65.3880   24.1080 H   0  0  0  0  0  0  0  0  0  0  0  0
  1  2  2  0  0  0  0
  1  9  1  0  0  0  0
  2  3  1  0  0  0  0
  3  8  2  0  0  0  0
  3  4  1  0  0  0  0
  4  5  2  0  0  0  0
  5  6  1  0  0  0  0
  7  6  2  0  0  0  0
  8  7  1  0  0  0  0
  9 10  1  6  0  0  0
  9  8  1  0  0  0  0
 10 15  1  0  0  0  0
 11 10  2  0  0  0  0
 12 13  2  0  0  0  0
 12 11  1  0  0  0  0
 13 14  1  0  0  0  0
 14 15  2  0  0  0  0
 16 17  1  0  0  0  0
 16  1  1  0  0  0  0
 17 19  1  0  0  0  0
 18 17  1  0  0  0  0
 20 16  2  0  0  0  0
 21 22  1  0  0  0  0
 21  2  1  0  0  0  0
 23 21  1  0  0  0  0
 24 21  1  0  0  0  0
M  END
>  <REMARK>
 VINA RESULT:      -8.6      1.906      2.378
  3 active torsions:
  status: ('A' for Active; 'I' for Inactive)
       I    between atoms: N1_1  and  C1_2 
    1  A    between atoms: C1_2  and  C2_4 
    2  A    between atoms: C3_5  and  N2_6 
    3  A    between atoms: C10_13  and  C11_14 

>  <TORSDO>
F 3

$$$$
../pdbqt/decoy.vina_out.57.pdbqt
 OpenBabel06052021513D

 24 26  0  0  1  0  0  0  0  0999 V2000
  -22.9760   66.3450   25.1970 C   0  0  0  0  0  0  0  0  0  0  0  0
  -24.2190   66.5300   24.7160 C   0  0  0  0  0  0  0  0  0  0  0  0
  -25.1410   65.6520   25.4230 C   0  0  0  0  0  0  0  0  0  0  0  0
  -26.5210   65.4810   25.2760 C   0  0  0  0  0  0  0  0  0  0  0  0
  -27.1710   64.5580   26.1120 C   0  0  0  0  0  0  0  0  0  0  0  0
  -26.4410   63.8270   27.0690 C   0  0  0  0  0  0  0  0  0  0  0  0
  -25.0560   64.0160   27.1960 C   0  0  0  0  0  0  0  0  0  0  0  0
  -24.4270   64.9340   26.3530 C   0  0  0  0  0  0  0  0  0  0  0  0
  -22.9780   65.2990   26.2970 C   0  0  1  0  0  0  0  0  0  0  0  0
  -22.1240   64.0980   25.9480 C   0  0  0  0  0  0  0  0  0  0  0  0
  -20.9850   63.7680   26.7080 C   0  0  0  0  0  0  0  0  0  0  0  0
  -20.2040   62.6610   26.3670 C   0  0  0  0  0  0  0  0  0  0  0  0
  -20.5470   61.8760   25.2630 C   0  0  0  0  0  0  0  0  0  0  0  0
  -21.6700   62.1980   24.4980 C   0  0  0  0  0  0  0  0  0  0  0  0
  -22.4550   63.3050   24.8360 C   0  0  0  0  0  0  0  0  0  0  0  0
  -21.7560   67.0580   24.7420 C   0  0  0  0  0  0  0  0  0  0  0  0
  -21.5330   68.4240   25.0980 N   0  0  0  0  0  0  0  0  0  0  0  0
  -20.6550   68.9050   24.7990 H   0  0  0  0  0  0  0  0  0  0  0  0
  -22.2430   68.9760   25.6250 H   0  0  0  0  0  0  0  0  0  0  0  0
  -20.8930   66.4650   24.0430 O   0  0  0  0  0  0  0  0  0  0  0  0
  -24.5810   67.4480   23.6730 N   0  0  0  0  0  0  0  0  0  0  0  0
  -23.7300   67.6950   23.1190 H   0  0  0  0  0  0  0  0  0  0  0  0
  -25.2840   67.0200   23.0320 H   0  0  0  0  0  0  0  0  0  0  0  0
  -25.0030   68.3060   24.0930 H   0  0  0  0  0  0  0  0  0  0  0  0
  1  9  1  0  0  0  0
  2  1  2  0  0  0  0
  2  3  1  0  0  0  0
  3  8  1  0  0  0  0
  4  3  2  0  0  0  0
  4  5  1  0  0  0  0
  5  6  2  0  0  0  0
  6  7  1  0  0  0  0
  8  7  2  0  0  0  0
  9 10  1  6  0  0  0
  9  8  1  0  0  0  0
 10 11  2  0  0  0  0
 12 11  1  0  0  0  0
 13 12  2  0  0  0  0
 14 15  2  0  0  0  0
 14 13  1  0  0  0  0
 15 10  1  0  0  0  0
 16 17  1  0  0  0  0
 16  1  1  0  0  0  0
 17 19  1  0  0  0  0
 18 17  1  0  0  0  0
 20 16  2  0  0  0  0
 21 24  1  0  0  0  0
 21  2  1  0  0  0  0
 22 21  1  0  0  0  0
 23 21  1  0  0  0  0
M  END
>  <REMARK>
 VINA RESULT:      -8.5      2.498      3.455
  3 active torsions:
  status: ('A' for Active; 'I' for Inactive)
       I    between atoms: N1_1  and  C1_2 
    1  A    between atoms: C1_2  and  C2_4 
    2  A    between atoms: C3_5  and  N2_6 
    3  A    between atoms: C10_13  and  C11_14 

>  <TORSDO>
F 3

$$$$
../pdbqt/decoy.vina_out.57.pdbqt
 OpenBabel06052021513D

 24 26  0  0  1  0  0  0  0  0999 V2000
  -25.7690   62.8320   27.9340 C   0  0  0  0  0  0  0  0  0  0  0  0
  -26.7740   63.5490   27.3990 C   0  0  0  0  0  0  0  0  0  0  0  0
  -26.2360   64.4420   26.3820 C   0  0  0  0  0  0  0  0  0  0  0  0
  -26.8800   65.3750   25.5630 C   0  0  0  0  0  0  0  0  0  0  0  0
  -26.1050   66.1060   24.6480 C   0  0  0  0  0  0  0  0  0  0  0  0
  -24.7150   65.8980   24.5670 C   0  0  0  0  0  0  0  0  0  0  0  0
  -24.0910   64.9570   25.4010 C   0  0  0  0  0  0  0  0  0  0  0  0
  -24.8770   64.2440   26.3080 C   0  0  0  0  0  0  0  0  0  0  0  0
  -24.4450   63.2040   27.2910 C   0  0  1  0  0  0  0  0  0  0  0  0
  -23.4620   63.7740   28.2930 C   0  0  0  0  0  0  0  0  0  0  0  0
  -23.8350   64.8080   29.1730 C   0  0  0  0  0  0  0  0  0  0  0  0
  -22.9120   65.3270   30.0850 C   0  0  0  0  0  0  0  0  0  0  0  0
  -21.6090   64.8250   30.1260 C   0  0  0  0  0  0  0  0  0  0  0  0
  -21.2260   63.8040   29.2520 C   0  0  0  0  0  0  0  0  0  0  0  0
  -22.1460   63.2810   28.3380 C   0  0  0  0  0  0  0  0  0  0  0  0
  -25.9080   61.8060   28.9980 C   0  0  0  0  0  0  0  0  0  0  0  0
  -26.0770   62.1890   30.3640 N   0  0  0  0  0  0  0  0  0  0  0  0
  -26.2050   61.4590   31.0990 H   0  0  0  0  0  0  0  0  0  0  0  0
  -26.0400   63.1880   30.6620 H   0  0  0  0  0  0  0  0  0  0  0  0
  -25.8900   60.5800   28.7090 O   0  0  0  0  0  0  0  0  0  0  0  0
  -28.1580   63.4490   27.7690 N   0  0  0  0  0  0  0  0  0  0  0  0
  -28.7270   64.0640   27.1440 H   0  0  0  0  0  0  0  0  0  0  0  0
  -28.4960   62.4680   27.6710 H   0  0  0  0  0  0  0  0  0  0  0  0
  -28.2750   63.7370   28.7660 H   0  0  0  0  0  0  0  0  0  0  0  0
  1 16  1  0  0  0  0
  2 21  1  0  0  0  0
  2  1  2  0  0  0  0
  3  2  1  0  0  0  0
  4  3  2  0  0  0  0
  5  4  1  0  0  0  0
  6  5  2  0  0  0  0
  6  7  1  0  0  0  0
  7  8  2  0  0  0  0
  8  3  1  0  0  0  0
  8  9  1  0  0  0  0
  9  1  1  0  0  0  0
  9 10  1  1  0  0  0
 10 15  2  0  0  0  0
 10 11  1  0  0  0  0
 11 12  2  0  0  0  0
 12 13  1  0  0  0  0
 14 13  2  0  0  0  0
 15 14  1  0  0  0  0
 16 17  1  0  0  0  0
 17 19  1  0  0  0  0
 17 18  1  0  0  0  0
 20 16  2  0  0  0  0
 21 24  1  0  0  0  0
 22 21  1  0  0  0  0
 23 21  1  0  0  0  0
M  END
>  <REMARK>
 VINA RESULT:      -8.0      3.747      5.233
  3 active torsions:
  status: ('A' for Active; 'I' for Inactive)
       I    between atoms: N1_1  and  C1_2 
    1  A    between atoms: C1_2  and  C2_4 
    2  A    between atoms: C3_5  and  N2_6 
    3  A    between atoms: C10_13  and  C11_14 

>  <TORSDO>
F 3

$$$$
../pdbqt/decoy.vina_out.57.pdbqt
 OpenBabel06052021513D

 24 26  0  0  1  0  0  0  0  0999 V2000
  -21.5710   64.1670   24.7120 C   0  0  0  0  0  0  0  0  0  0  0  0
  -20.6420   65.0040   24.2160 C   0  0  0  0  0  0  0  0  0  0  0  0
  -20.5660   66.1880   25.0600 C   0  0  0  0  0  0  0  0  0  0  0  0
  -19.7610   67.3270   24.9520 C   0  0  0  0  0  0  0  0  0  0  0  0
  -19.8900   68.3290   25.9290 C   0  0  0  0  0  0  0  0  0  0  0  0
  -20.8080   68.1790   26.9850 C   0  0  0  0  0  0  0  0  0  0  0  0
  -21.6060   67.0270   27.0710 C   0  0  0  0  0  0  0  0  0  0  0  0
  -21.4680   66.0450   26.0880 C   0  0  0  0  0  0  0  0  0  0  0  0
  -22.2010   64.7480   25.9650 C   0  0  1  0  0  0  0  0  0  0  0  0
  -23.6910   64.9750   25.8060 C   0  0  0  0  0  0  0  0  0  0  0  0
  -24.1950   65.8330   24.8100 C   0  0  0  0  0  0  0  0  0  0  0  0
  -25.5720   66.0370   24.6830 C   0  0  0  0  0  0  0  0  0  0  0  0
  -26.4580   65.3920   25.5490 C   0  0  0  0  0  0  0  0  0  0  0  0
  -25.9680   64.5440   26.5460 C   0  0  0  0  0  0  0  0  0  0  0  0
  -24.5910   64.3370   26.6760 C   0  0  0  0  0  0  0  0  0  0  0  0
  -21.9420   62.8480   24.1410 C   0  0  0  0  0  0  0  0  0  0  0  0
  -21.5360   61.6350   24.7780 N   0  0  0  0  0  0  0  0  0  0  0  0
  -21.8300   60.7140   24.3850 H   0  0  0  0  0  0  0  0  0  0  0  0
  -20.9160   61.6390   25.6170 H   0  0  0  0  0  0  0  0  0  0  0  0
  -22.6330   62.7780   23.0890 O   0  0  0  0  0  0  0  0  0  0  0  0
  -19.8490   64.7680   23.0420 N   0  0  0  0  0  0  0  0  0  0  0  0
  -20.2510   63.9630   22.5110 H   0  0  0  0  0  0  0  0  0  0  0  0
  -19.8460   65.6080   22.4250 H   0  0  0  0  0  0  0  0  0  0  0  0
  -18.8630   64.5650   23.3220 H   0  0  0  0  0  0  0  0  0  0  0  0
  1  9  1  0  0  0  0
  2  1  2  0  0  0  0
  2  3  1  0  0  0  0
  3  8  1  0  0  0  0
  4  3  2  0  0  0  0
  4  5  1  0  0  0  0
  5  6  2  0  0  0  0
  6  7  1  0  0  0  0
  8  7  2  0  0  0  0
  9 10  1  6  0  0  0
  9  8  1  0  0  0  0
 10 15  2  0  0  0  0
 11 10  1  0  0  0  0
 12 11  2  0  0  0  0
 12 13  1  0  0  0  0
 13 14  2  0  0  0  0
 14 15  1  0  0  0  0
 16  1  1  0  0  0  0
 16 17  1  0  0  0  0
 17 19  1  0  0  0  0
 18 17  1  0  0  0  0
 20 16  2  0  0  0  0
 21 24  1  0  0  0  0
 21  2  1  0  0  0  0
 22 21  1  0  0  0  0
 23 21  1  0  0  0  0
M  END
>  <REMARK>
 VINA RESULT:      -7.9      3.233      6.072
  3 active torsions:
  status: ('A' for Active; 'I' for Inactive)
       I    between atoms: N1_1  and  C1_2 
    1  A    between atoms: C1_2  and  C2_4 
    2  A    between atoms: C3_5  and  N2_6 
    3  A    between atoms: C10_13  and  C11_14 

>  <TORSDO>
F 3

$$$$
../pdbqt/decoy.vina_out.57.pdbqt
 OpenBabel06052021513D

 24 26  0  0  1  0  0  0  0  0999 V2000
  -22.6250   63.7340   26.4930 C   0  0  0  0  0  0  0  0  0  0  0  0
  -23.8040   63.3580   27.0180 C   0  0  0  0  0  0  0  0  0  0  0  0
  -24.8680   64.1570   26.4260 C   0  0  0  0  0  0  0  0  0  0  0  0
  -26.2490   64.1380   26.6520 C   0  0  0  0  0  0  0  0  0  0  0  0
  -27.0560   65.0250   25.9210 C   0  0  0  0  0  0  0  0  0  0  0  0
  -26.4790   65.9070   24.9870 C   0  0  0  0  0  0  0  0  0  0  0  0
  -25.0910   65.9080   24.7790 C   0  0  0  0  0  0  0  0  0  0  0  0
  -24.3050   65.0230   25.5190 C   0  0  0  0  0  0  0  0  0  0  0  0
  -22.8210   64.8440   25.4760 C   0  0  1  0  0  0  0  0  0  0  0  0
  -22.1050   66.1190   25.8730 C   0  0  0  0  0  0  0  0  0  0  0  0
  -21.6300   67.0210   24.9010 C   0  0  0  0  0  0  0  0  0  0  0  0
  -20.9650   68.1880   25.2850 C   0  0  0  0  0  0  0  0  0  0  0  0
  -20.7610   68.4650   26.6390 C   0  0  0  0  0  0  0  0  0  0  0  0
  -21.2210   67.5730   27.6120 C   0  0  0  0  0  0  0  0  0  0  0  0
  -21.8880   66.4040   27.2320 C   0  0  0  0  0  0  0  0  0  0  0  0
  -21.3010   63.1550   26.8330 C   0  0  0  0  0  0  0  0  0  0  0  0
  -20.4380   62.6540   25.8100 N   0  0  0  0  0  0  0  0  0  0  0  0
  -19.4960   62.2790   26.0580 H   0  0  0  0  0  0  0  0  0  0  0  0
  -20.7360   62.6190   24.8110 H   0  0  0  0  0  0  0  0  0  0  0  0
  -20.9130   63.1060   28.0310 O   0  0  0  0  0  0  0  0  0  0  0  0
  -23.9880   62.3320   28.0060 N   0  0  0  0  0  0  0  0  0  0  0  0
  -23.3890   61.5100   27.7660 H   0  0  0  0  0  0  0  0  0  0  0  0
  -23.7180   62.6780   28.9520 H   0  0  0  0  0  0  0  0  0  0  0  0
  -24.9940   62.0520   28.0360 H   0  0  0  0  0  0  0  0  0  0  0  0
  1 16  1  0  0  0  0
  1  2  2  0  0  0  0
  2 21  1  0  0  0  0
  3  4  1  0  0  0  0
  3  2  1  0  0  0  0
  5  4  2  0  0  0  0
  6  5  1  0  0  0  0
  7  6  2  0  0  0  0
  7  8  1  0  0  0  0
  8  3  2  0  0  0  0
  9  8  1  0  0  0  0
  9 10  1  1  0  0  0
  9  1  1  0  0  0  0
 10 15  2  0  0  0  0
 11 12  2  0  0  0  0
 11 10  1  0  0  0  0
 12 13  1  0  0  0  0
 13 14  2  0  0  0  0
 15 14  1  0  0  0  0
 16 20  2  0  0  0  0
 17 18  1  0  0  0  0
 17 16  1  0  0  0  0
 19 17  1  0  0  0  0
 21 24  1  0  0  0  0
 21 23  1  0  0  0  0
 22 21  1  0  0  0  0
M  END
>  <REMARK>
 VINA RESULT:      -7.7      3.641      4.738
  3 active torsions:
  status: ('A' for Active; 'I' for Inactive)
       I    between atoms: N1_1  and  C1_2 
    1  A    between atoms: C1_2  and  C2_4 
    2  A    between atoms: C3_5  and  N2_6 
    3  A    between atoms: C10_13  and  C11_14 

>  <TORSDO>
F 3

$$$$
../pdbqt/decoy.vina_out.57.pdbqt
 OpenBabel06052021513D

 24 26  0  0  1  0  0  0  0  0999 V2000
  -26.6600   64.1860   26.6510 C   0  0  0  0  0  0  0  0  0  0  0  0
  -25.8690   64.9270   25.8550 C   0  0  0  0  0  0  0  0  0  0  0  0
  -24.4960   64.4540   25.9690 C   0  0  0  0  0  0  0  0  0  0  0  0
  -23.3280   64.9040   25.3470 C   0  0  0  0  0  0  0  0  0  0  0  0
  -22.1220   64.2460   25.6380 C   0  0  0  0  0  0  0  0  0  0  0  0
  -22.1010   63.1610   26.5350 C   0  0  0  0  0  0  0  0  0  0  0  0
  -23.2870   62.7280   27.1490 C   0  0  0  0  0  0  0  0  0  0  0  0
  -24.4750   63.3990   26.8510 C   0  0  0  0  0  0  0  0  0  0  0  0
  -25.8480   63.1280   27.3770 C   0  0  1  0  0  0  0  0  0  0  0  0
  -25.9010   63.2960   28.8810 C   0  0  0  0  0  0  0  0  0  0  0  0
  -25.2380   64.3620   29.5190 C   0  0  0  0  0  0  0  0  0  0  0  0
  -25.2910   64.4970   30.9090 C   0  0  0  0  0  0  0  0  0  0  0  0
  -26.0000   63.5700   31.6760 C   0  0  0  0  0  0  0  0  0  0  0  0
  -26.6570   62.5050   31.0550 C   0  0  0  0  0  0  0  0  0  0  0  0
  -26.6070   62.3660   29.6640 C   0  0  0  0  0  0  0  0  0  0  0  0
  -28.1270   64.3500   26.8100 C   0  0  0  0  0  0  0  0  0  0  0  0
  -29.0300   63.8320   25.8310 N   0  0  0  0  0  0  0  0  0  0  0  0
  -30.0610   63.9250   25.9700 H   0  0  0  0  0  0  0  0  0  0  0  0
  -28.6890   63.3880   24.9520 H   0  0  0  0  0  0  0  0  0  0  0  0
  -28.5980   64.9400   27.8180 O   0  0  0  0  0  0  0  0  0  0  0  0
  -26.3060   66.0120   25.0220 N   0  0  0  0  0  0  0  0  0  0  0  0
  -27.3510   66.0250   24.9920 H   0  0  0  0  0  0  0  0  0  0  0  0
  -25.9700   66.9240   25.3980 H   0  0  0  0  0  0  0  0  0  0  0  0
  -25.9170   65.8920   24.0590 H   0  0  0  0  0  0  0  0  0  0  0  0
  1 16  1  0  0  0  0
  1  9  1  0  0  0  0
  2  3  1  0  0  0  0
  2  1  2  0  0  0  0
  3  8  2  0  0  0  0
  4  5  2  0  0  0  0
  4  3  1  0  0  0  0
  5  6  1  0  0  0  0
  6  7  2  0  0  0  0
  8  7  1  0  0  0  0
  8  9  1  0  0  0  0
  9 10  1  1  0  0  0
 10 11  2  0  0  0  0
 10 15  1  0  0  0  0
 11 12  1  0  0  0  0
 12 13  2  0  0  0  0
 14 13  1  0  0  0  0
 15 14  2  0  0  0  0
 16 20  2  0  0  0  0
 17 18  1  0  0  0  0
 17 16  1  0  0  0  0
 19 17  1  0  0  0  0
 21 23  1  0  0  0  0
 21  2  1  0  0  0  0
 22 21  1  0  0  0  0
 24 21  1  0  0  0  0
M  END
>  <REMARK>
 VINA RESULT:      -7.7      2.509      5.323
  3 active torsions:
  status: ('A' for Active; 'I' for Inactive)
       I    between atoms: N1_1  and  C1_2 
    1  A    between atoms: C1_2  and  C2_4 
    2  A    between atoms: C3_5  and  N2_6 
    3  A    between atoms: C10_13  and  C11_14 

>  <TORSDO>
F 3

$$$$
../pdbqt/decoy.vina_out.57.pdbqt
 OpenBabel06052021513D

 24 26  0  0  1  0  0  0  0  0999 V2000
  -21.6040   64.0990   27.7990 C   0  0  0  0  0  0  0  0  0  0  0  0
  -20.6100   63.3000   27.3730 C   0  0  0  0  0  0  0  0  0  0  0  0
  -20.8740   62.9000   25.9970 C   0  0  0  0  0  0  0  0  0  0  0  0
  -20.1400   62.0790   25.1350 C   0  0  0  0  0  0  0  0  0  0  0  0
  -20.6300   61.8690   23.8370 C   0  0  0  0  0  0  0  0  0  0  0  0
  -21.8330   62.4730   23.4230 C   0  0  0  0  0  0  0  0  0  0  0  0
  -22.5530   63.2920   24.3070 C   0  0  0  0  0  0  0  0  0  0  0  0
  -22.0520   63.4850   25.5960 C   0  0  0  0  0  0  0  0  0  0  0  0
  -22.6360   64.3010   26.7050 C   0  0  1  0  0  0  0  0  0  0  0  0
  -24.0030   63.7840   27.1030 C   0  0  0  0  0  0  0  0  0  0  0  0
  -24.1580   62.5150   27.6950 C   0  0  0  0  0  0  0  0  0  0  0  0
  -25.4280   62.0500   28.0490 C   0  0  0  0  0  0  0  0  0  0  0  0
  -26.5540   62.8420   27.8120 C   0  0  0  0  0  0  0  0  0  0  0  0
  -26.4130   64.0990   27.2190 C   0  0  0  0  0  0  0  0  0  0  0  0
  -25.1440   64.5680   26.8630 C   0  0  0  0  0  0  0  0  0  0  0  0
  -21.6990   64.7200   29.1450 C   0  0  0  0  0  0  0  0  0  0  0  0
  -22.1670   66.0620   29.2980 N   0  0  0  0  0  0  0  0  0  0  0  0
  -22.2600   66.4770   30.2520 H   0  0  0  0  0  0  0  0  0  0  0  0
  -22.3890   66.6620   28.4750 H   0  0  0  0  0  0  0  0  0  0  0  0
  -21.3780   64.0680   30.1740 O   0  0  0  0  0  0  0  0  0  0  0  0
  -19.4670   62.9030   28.1480 N   0  0  0  0  0  0  0  0  0  0  0  0
  -19.1070   61.9910   27.7890 H   0  0  0  0  0  0  0  0  0  0  0  0
  -18.7080   63.6150   28.0770 H   0  0  0  0  0  0  0  0  0  0  0  0
  -19.7400   62.8170   29.1530 H   0  0  0  0  0  0  0  0  0  0  0  0
  1 16  1  0  0  0  0
  2  1  2  0  0  0  0
  2 21  1  0  0  0  0
  3  2  1  0  0  0  0
  4  3  2  0  0  0  0
  5  4  1  0  0  0  0
  6  5  2  0  0  0  0
  6  7  1  0  0  0  0
  7  8  2  0  0  0  0
  8  3  1  0  0  0  0
  8  9  1  0  0  0  0
  9 10  1  1  0  0  0
  9  1  1  0  0  0  0
 10 11  1  0  0  0  0
 11 12  2  0  0  0  0
 13 12  1  0  0  0  0
 14 13  2  0  0  0  0
 15 10  2  0  0  0  0
 15 14  1  0  0  0  0
 16 17  1  0  0  0  0
 16 20  2  0  0  0  0
 17 18  1  0  0  0  0
 19 17  1  0  0  0  0
 21 24  1  0  0  0  0
 22 21  1  0  0  0  0
 23 21  1  0  0  0  0
M  END
>  <REMARK>
 VINA RESULT:      -7.7      4.315      6.618
  3 active torsions:
  status: ('A' for Active; 'I' for Inactive)
       I    between atoms: N1_1  and  C1_2 
    1  A    between atoms: C1_2  and  C2_4 
    2  A    between atoms: C3_5  and  N2_6 
    3  A    between atoms: C10_13  and  C11_14 

>  <TORSDO>
F 3

$$$$
../pdbqt/decoy.vina_out.57.pdbqt
 OpenBabel06052021513D

 24 26  0  0  1  0  0  0  0  0999 V2000
  -21.2750   66.0950   25.7600 C   0  0  0  0  0  0  0  0  0  0  0  0
  -20.3930   65.2160   26.2680 C   0  0  0  0  0  0  0  0  0  0  0  0
  -20.5810   63.9230   25.6230 C   0  0  0  0  0  0  0  0  0  0  0  0
  -19.9130   62.7100   25.8160 C   0  0  0  0  0  0  0  0  0  0  0  0
  -20.2980   61.6060   25.0370 C   0  0  0  0  0  0  0  0  0  0  0  0
  -21.3320   61.7300   24.0890 C   0  0  0  0  0  0  0  0  0  0  0  0
  -21.9880   62.9590   23.9150 C   0  0  0  0  0  0  0  0  0  0  0  0
  -21.5950   64.0430   24.7030 C   0  0  0  0  0  0  0  0  0  0  0  0
  -22.1410   65.4350   24.7020 C   0  0  1  0  0  0  0  0  0  0  0  0
  -23.6090   65.4460   25.0740 C   0  0  0  0  0  0  0  0  0  0  0  0
  -24.0830   64.7350   26.1940 C   0  0  0  0  0  0  0  0  0  0  0  0
  -25.4430   64.7500   26.5180 C   0  0  0  0  0  0  0  0  0  0  0  0
  -26.3420   65.4690   25.7270 C   0  0  0  0  0  0  0  0  0  0  0  0
  -25.8850   66.1720   24.6100 C   0  0  0  0  0  0  0  0  0  0  0  0
  -24.5260   66.1600   24.2820 C   0  0  0  0  0  0  0  0  0  0  0  0
  -21.3990   67.5220   26.1510 C   0  0  0  0  0  0  0  0  0  0  0  0
  -21.5110   68.5450   25.1590 N   0  0  0  0  0  0  0  0  0  0  0  0
  -21.6300   69.5410   25.4480 H   0  0  0  0  0  0  0  0  0  0  0  0
  -21.4410   68.3300   24.1410 H   0  0  0  0  0  0  0  0  0  0  0  0
  -21.4200   67.8510   27.3670 O   0  0  0  0  0  0  0  0  0  0  0  0
  -19.4200   65.5030   27.2840 N   0  0  0  0  0  0  0  0  0  0  0  0
  -19.8660   66.0740   28.0380 H   0  0  0  0  0  0  0  0  0  0  0  0
  -19.0540   64.6220   27.7040 H   0  0  0  0  0  0  0  0  0  0  0  0
  -18.6170   66.0220   26.8620 H   0  0  0  0  0  0  0  0  0  0  0  0
  1 16  1  0  0  0  0
  1  2  2  0  0  0  0
  2 21  1  0  0  0  0
  3  4  1  0  0  0  0
  3  2  1  0  0  0  0
  5  4  2  0  0  0  0
  6  5  1  0  0  0  0
  7  6  2  0  0  0  0
  7  8  1  0  0  0  0
  8  3  2  0  0  0  0
  9  8  1  0  0  0  0
  9 10  1  1  0  0  0
  9  1  1  0  0  0  0
 10 11  2  0  0  0  0
 11 12  1  0  0  0  0
 13 12  2  0  0  0  0
 14 13  1  0  0  0  0
 15 14  2  0  0  0  0
 15 10  1  0  0  0  0
 16 20  2  0  0  0  0
 17 18  1  0  0  0  0
 17 16  1  0  0  0  0
 19 17  1  0  0  0  0
 21 23  1  0  0  0  0
 21 22  1  0  0  0  0
 24 21  1  0  0  0  0
M  END
>  <REMARK>
 VINA RESULT:      -7.4      3.282      5.813
  3 active torsions:
  status: ('A' for Active; 'I' for Inactive)
       I    between atoms: N1_1  and  C1_2 
    1  A    between atoms: C1_2  and  C2_4 
    2  A    between atoms: C3_5  and  N2_6 
    3  A    between atoms: C10_13  and  C11_14 

>  <TORSDO>
F 3

$$$$
