../pdbqt/decoy.vina_out.6.pdbqt
 OpenBabel06052021513D

 18 18  0  0  0  0  0  0  0  0999 V2000
  -25.7600   65.6690   25.1620 C   0  0  0  0  0  0  0  0  0  0  0  0
  -25.1010   64.8120   26.0530 C   0  0  0  0  0  0  0  0  0  0  0  0
  -23.7090   64.8420   26.1660 C   0  0  0  0  0  0  0  0  0  0  0  0
  -22.9580   65.7440   25.4020 C   0  0  0  0  0  0  0  0  0  0  0  0
  -23.6130   66.6300   24.5370 C   0  0  0  0  0  0  0  0  0  0  0  0
  -25.0060   66.6000   24.4230 C   0  0  0  0  0  0  0  0  0  0  0  0
  -21.2040   65.7590   25.5430 S   0  0  0  0  0  0  0  0  0  0  0  0
  -20.6010   66.6880   24.5250 O   0  0  0  0  0  0  0  0  0  0  0  0
  -20.8200   66.2320   26.9170 O   0  0  0  0  0  0  0  0  0  0  0  0
  -20.5890   64.1750   25.2970 N   0  0  0  0  0  0  0  0  0  0  0  0
  -20.4190   63.5830   23.8450 S   0  0  0  0  0  0  0  0  0  0  0  0
  -19.1580   62.3150   24.0550 C   0  0  0  0  0  0  0  0  0  0  0  0
  -21.9340   62.6490   23.5540 C   0  0  0  0  0  0  0  0  0  0  0  0
  -27.1950   65.6260   25.0990 N   0  0  0  0  0  0  0  0  0  0  0  0
  -27.9210   65.6850   24.0210 C   0  0  0  0  0  0  0  0  0  0  0  0
  -29.4110   65.6630   24.1420 C   0  0  0  0  0  0  0  0  0  0  0  0
  -27.3340   65.6960   22.7560 O   0  0  0  0  0  0  0  0  0  0  0  0
  -26.6510   66.3990   22.4990 H   0  0  0  0  0  0  0  0  0  0  0  0
  1  2  2  0  0  0  0
  2  3  1  0  0  0  0
  4  7  1  0  0  0  0
  4  3  2  0  0  0  0
  5  4  1  0  0  0  0
  6  5  2  0  0  0  0
  6  1  1  0  0  0  0
  7  9  2  0  0  0  0
  8  7  2  0  0  0  0
 10  7  1  0  0  0  0
 11 12  1  0  0  0  0
 11 10  1  0  0  0  0
 13 11  1  0  0  0  0
 14  1  1  0  0  0  0
 15 16  1  0  0  0  0
 15 14  2  0  0  0  0
 17 15  1  0  0  0  0
 18 17  1  0  0  0  0
M  END
>  <MODEL>
1

>  <REMARK>
 VINA RESULT:      -6.1      0.000      0.000
  5 active torsions:
  status: ('A' for Active; 'I' for Inactive)
    1  A    between atoms: O1_2  and  C1_3 
    2  A    between atoms: N1_4  and  C2_5 
    3  A    between atoms: C5_8  and  S1_9 
    4  A    between atoms: S1_9  and  N2_12 
    5  A    between atoms: N2_12  and  S2_13 

>  <TORSDO>
F 5

$$$$
../pdbqt/decoy.vina_out.6.pdbqt
 OpenBabel06052021513D

 18 18  0  0  0  0  0  0  0  0999 V2000
  -23.1710   63.8240   25.9910 C   0  0  0  0  0  0  0  0  0  0  0  0
  -23.2490   62.7440   26.8800 C   0  0  0  0  0  0  0  0  0  0  0  0
  -24.4210   62.5000   27.5990 C   0  0  0  0  0  0  0  0  0  0  0  0
  -25.5400   63.3250   27.4250 C   0  0  0  0  0  0  0  0  0  0  0  0
  -25.4820   64.3850   26.5100 C   0  0  0  0  0  0  0  0  0  0  0  0
  -24.3080   64.6290   25.7910 C   0  0  0  0  0  0  0  0  0  0  0  0
  -27.0050   63.0160   28.3490 S   0  0  0  0  0  0  0  0  0  0  0  0
  -28.2240   63.2740   27.5070 O   0  0  0  0  0  0  0  0  0  0  0  0
  -27.0190   61.5820   28.7940 O   0  0  0  0  0  0  0  0  0  0  0  0
  -27.0460   64.0380   29.7290 N   0  0  0  0  0  0  0  0  0  0  0  0
  -26.1980   63.7020   31.0160 S   0  0  0  0  0  0  0  0  0  0  0  0
  -24.7330   64.7320   30.8320 C   0  0  0  0  0  0  0  0  0  0  0  0
  -27.1060   64.4730   32.3720 C   0  0  0  0  0  0  0  0  0  0  0  0
  -21.9560   64.0210   25.2500 N   0  0  0  0  0  0  0  0  0  0  0  0
  -21.6620   63.4920   24.0980 C   0  0  0  0  0  0  0  0  0  0  0  0
  -20.3290   63.7770   23.4830 C   0  0  0  0  0  0  0  0  0  0  0  0
  -22.5940   62.7280   23.3970 O   0  0  0  0  0  0  0  0  0  0  0  0
  -23.5450   62.6230   23.7300 H   0  0  0  0  0  0  0  0  0  0  0  0
  1  2  1  0  0  0  0
  2  3  2  0  0  0  0
  4  3  1  0  0  0  0
  4  7  1  0  0  0  0
  5  4  2  0  0  0  0
  6  1  2  0  0  0  0
  6  5  1  0  0  0  0
  7  9  2  0  0  0  0
  7 10  1  0  0  0  0
  8  7  2  0  0  0  0
 10 11  1  0  0  0  0
 11 13  1  0  0  0  0
 12 11  1  0  0  0  0
 14  1  1  0  0  0  0
 15 14  2  0  0  0  0
 16 15  1  0  0  0  0
 17 18  1  0  0  0  0
 17 15  1  0  0  0  0
M  END
>  <REMARK>
 VINA RESULT:      -6.1      4.402      6.786
  5 active torsions:
  status: ('A' for Active; 'I' for Inactive)
    1  A    between atoms: O1_2  and  C1_3 
    2  A    between atoms: N1_4  and  C2_5 
    3  A    between atoms: C5_8  and  S1_9 
    4  A    between atoms: S1_9  and  N2_12 
    5  A    between atoms: N2_12  and  S2_13 

>  <TORSDO>
F 5

$$$$
../pdbqt/decoy.vina_out.6.pdbqt
 OpenBabel06052021513D

 18 18  0  0  0  0  0  0  0  0999 V2000
  -25.7670   63.9250   27.6860 C   0  0  0  0  0  0  0  0  0  0  0  0
  -25.5910   64.8260   26.6290 C   0  0  0  0  0  0  0  0  0  0  0  0
  -24.5110   64.6900   25.7530 C   0  0  0  0  0  0  0  0  0  0  0  0
  -23.6020   63.6370   25.9140 C   0  0  0  0  0  0  0  0  0  0  0  0
  -23.7930   62.7100   26.9460 C   0  0  0  0  0  0  0  0  0  0  0  0
  -24.8730   62.8460   27.8230 C   0  0  0  0  0  0  0  0  0  0  0  0
  -22.2360   63.4870   24.8130 S   0  0  0  0  0  0  0  0  0  0  0  0
  -21.2330   62.5030   25.3490 O   0  0  0  0  0  0  0  0  0  0  0  0
  -22.7250   63.0020   23.4780 O   0  0  0  0  0  0  0  0  0  0  0  0
  -21.4790   65.0160   24.6180 N   0  0  0  0  0  0  0  0  0  0  0  0
  -19.9110   65.1640   24.6880 S   0  0  0  0  0  0  0  0  0  0  0  0
  -19.3790   64.7770   23.0120 C   0  0  0  0  0  0  0  0  0  0  0  0
  -19.6270   66.9390   24.8380 C   0  0  0  0  0  0  0  0  0  0  0  0
  -26.9080   64.0840   28.5450 N   0  0  0  0  0  0  0  0  0  0  0  0
  -28.1470   63.8340   28.2350 C   0  0  0  0  0  0  0  0  0  0  0  0
  -29.2190   64.0930   29.2450 C   0  0  0  0  0  0  0  0  0  0  0  0
  -28.4810   63.2620   27.0080 O   0  0  0  0  0  0  0  0  0  0  0  0
  -29.3520   62.7600   26.8820 H   0  0  0  0  0  0  0  0  0  0  0  0
  1  6  1  0  0  0  0
  1 14  1  0  0  0  0
  2  1  2  0  0  0  0
  3  4  2  0  0  0  0
  3  2  1  0  0  0  0
  4  5  1  0  0  0  0
  5  6  2  0  0  0  0
  7  8  2  0  0  0  0
  7  4  1  0  0  0  0
  9  7  2  0  0  0  0
 10 11  1  0  0  0  0
 10  7  1  0  0  0  0
 11 13  1  0  0  0  0
 12 11  1  0  0  0  0
 15 14  2  0  0  0  0
 15 16  1  0  0  0  0
 17 15  1  0  0  0  0
 18 17  1  0  0  0  0
M  END
>  <REMARK>
 VINA RESULT:      -6.0      3.122      3.769
  5 active torsions:
  status: ('A' for Active; 'I' for Inactive)
    1  A    between atoms: O1_2  and  C1_3 
    2  A    between atoms: N1_4  and  C2_5 
    3  A    between atoms: C5_8  and  S1_9 
    4  A    between atoms: S1_9  and  N2_12 
    5  A    between atoms: N2_12  and  S2_13 

>  <TORSDO>
F 5

$$$$
../pdbqt/decoy.vina_out.6.pdbqt
 OpenBabel06052021513D

 18 18  0  0  0  0  0  0  0  0999 V2000
  -25.7880   65.7260   25.2400 C   0  0  0  0  0  0  0  0  0  0  0  0
  -25.1640   64.9730   26.2440 C   0  0  0  0  0  0  0  0  0  0  0  0
  -23.7770   65.0170   26.4040 C   0  0  0  0  0  0  0  0  0  0  0  0
  -22.9970   65.8310   25.5730 C   0  0  0  0  0  0  0  0  0  0  0  0
  -23.6180   66.6150   24.5920 C   0  0  0  0  0  0  0  0  0  0  0  0
  -25.0060   66.5710   24.4310 C   0  0  0  0  0  0  0  0  0  0  0  0
  -21.2490   65.8640   25.7750 S   0  0  0  0  0  0  0  0  0  0  0  0
  -20.7990   64.7330   26.6580 O   0  0  0  0  0  0  0  0  0  0  0  0
  -20.5900   65.7220   24.4330 O   0  0  0  0  0  0  0  0  0  0  0  0
  -20.7760   67.3560   26.4830 N   0  0  0  0  0  0  0  0  0  0  0  0
  -19.5590   68.1790   25.9110 S   0  0  0  0  0  0  0  0  0  0  0  0
  -19.5920   69.6990   26.8760 C   0  0  0  0  0  0  0  0  0  0  0  0
  -18.0980   67.3100   26.5150 C   0  0  0  0  0  0  0  0  0  0  0  0
  -27.2200   65.6740   25.1300 N   0  0  0  0  0  0  0  0  0  0  0  0
  -27.9100   65.6970   24.0270 C   0  0  0  0  0  0  0  0  0  0  0  0
  -29.4030   65.6710   24.0980 C   0  0  0  0  0  0  0  0  0  0  0  0
  -27.2800   65.6720   22.7830 O   0  0  0  0  0  0  0  0  0  0  0  0
  -26.7080   66.4470   22.4680 H   0  0  0  0  0  0  0  0  0  0  0  0
  1  2  2  0  0  0  0
  2  3  1  0  0  0  0
  4  7  1  0  0  0  0
  4  3  2  0  0  0  0
  5  4  1  0  0  0  0
  6  5  2  0  0  0  0
  6  1  1  0  0  0  0
  7 10  1  0  0  0  0
  7  8  2  0  0  0  0
  9  7  2  0  0  0  0
 11 10  1  0  0  0  0
 11 13  1  0  0  0  0
 11 12  1  0  0  0  0
 14  1  1  0  0  0  0
 15 16  1  0  0  0  0
 15 14  2  0  0  0  0
 17 15  1  0  0  0  0
 18 17  1  0  0  0  0
M  END
>  <REMARK>
 VINA RESULT:      -5.9      2.173      3.075
  5 active torsions:
  status: ('A' for Active; 'I' for Inactive)
    1  A    between atoms: O1_2  and  C1_3 
    2  A    between atoms: N1_4  and  C2_5 
    3  A    between atoms: C5_8  and  S1_9 
    4  A    between atoms: S1_9  and  N2_12 
    5  A    between atoms: N2_12  and  S2_13 

>  <TORSDO>
F 5

$$$$
../pdbqt/decoy.vina_out.6.pdbqt
 OpenBabel06052021513D

 18 18  0  0  0  0  0  0  0  0999 V2000
  -18.6420   63.7930   22.4630 C   0  0  0  0  0  0  0  0  0  0  0  0
  -17.4800   63.3960   23.1390 C   0  0  0  0  0  0  0  0  0  0  0  0
  -16.2210   63.6120   22.5730 C   0  0  0  0  0  0  0  0  0  0  0  0
  -16.1070   64.2460   21.3290 C   0  0  0  0  0  0  0  0  0  0  0  0
  -17.2620   64.6800   20.6650 C   0  0  0  0  0  0  0  0  0  0  0  0
  -18.5220   64.4630   21.2310 C   0  0  0  0  0  0  0  0  0  0  0  0
  -14.5160   64.4980   20.6200 S   0  0  0  0  0  0  0  0  0  0  0  0
  -13.6920   63.2440   20.7160 O   0  0  0  0  0  0  0  0  0  0  0  0
  -14.6700   64.8670   19.1720 O   0  0  0  0  0  0  0  0  0  0  0  0
  -13.7080   65.7690   21.4460 N   0  0  0  0  0  0  0  0  0  0  0  0
  -12.8070   66.8030   20.6670 S   0  0  0  0  0  0  0  0  0  0  0  0
  -12.1580   67.8580   21.9740 C   0  0  0  0  0  0  0  0  0  0  0  0
  -11.3770   65.8440   20.1290 C   0  0  0  0  0  0  0  0  0  0  0  0
  -19.9140   63.5780   23.0950 N   0  0  0  0  0  0  0  0  0  0  0  0
  -20.7070   62.5640   22.9060 C   0  0  0  0  0  0  0  0  0  0  0  0
  -22.0170   62.5180   23.6240 C   0  0  0  0  0  0  0  0  0  0  0  0
  -20.3230   61.4890   22.1050 O   0  0  0  0  0  0  0  0  0  0  0  0
  -19.3510   61.2150   22.0220 H   0  0  0  0  0  0  0  0  0  0  0  0
  1 14  1  0  0  0  0
  1  2  2  0  0  0  0
  3  2  1  0  0  0  0
  4  3  2  0  0  0  0
  5  6  2  0  0  0  0
  5  4  1  0  0  0  0
  6  1  1  0  0  0  0
  7  8  2  0  0  0  0
  7  4  1  0  0  0  0
  7 10  1  0  0  0  0
  9  7  2  0  0  0  0
 11 10  1  0  0  0  0
 11 12  1  0  0  0  0
 13 11  1  0  0  0  0
 15 14  2  0  0  0  0
 15 16  1  0  0  0  0
 17 15  1  0  0  0  0
 18 17  1  0  0  0  0
M  END
>  <REMARK>
 VINA RESULT:      -5.9      6.039      8.552
  5 active torsions:
  status: ('A' for Active; 'I' for Inactive)
    1  A    between atoms: O1_2  and  C1_3 
    2  A    between atoms: N1_4  and  C2_5 
    3  A    between atoms: C5_8  and  S1_9 
    4  A    between atoms: S1_9  and  N2_12 
    5  A    between atoms: N2_12  and  S2_13 

>  <TORSDO>
F 5

$$$$
../pdbqt/decoy.vina_out.6.pdbqt
 OpenBabel06052021513D

 18 18  0  0  0  0  0  0  0  0999 V2000
  -24.5090   65.4960   25.4060 C   0  0  0  0  0  0  0  0  0  0  0  0
  -24.2640   64.2160   25.9200 C   0  0  0  0  0  0  0  0  0  0  0  0
  -22.9570   63.7910   26.1700 C   0  0  0  0  0  0  0  0  0  0  0  0
  -21.8780   64.6500   25.9280 C   0  0  0  0  0  0  0  0  0  0  0  0
  -22.1180   65.9450   25.4500 C   0  0  0  0  0  0  0  0  0  0  0  0
  -23.4260   66.3700   25.1980 C   0  0  0  0  0  0  0  0  0  0  0  0
  -20.2350   64.0960   26.2330 S   0  0  0  0  0  0  0  0  0  0  0  0
  -19.5170   65.0520   27.1450 O   0  0  0  0  0  0  0  0  0  0  0  0
  -20.2800   62.7450   26.8860 O   0  0  0  0  0  0  0  0  0  0  0  0
  -19.3780   63.9790   24.7490 N   0  0  0  0  0  0  0  0  0  0  0  0
  -20.0460   63.3420   23.4700 S   0  0  0  0  0  0  0  0  0  0  0  0
  -19.0720   64.0140   22.1120 C   0  0  0  0  0  0  0  0  0  0  0  0
  -19.5720   61.6020   23.5290 C   0  0  0  0  0  0  0  0  0  0  0  0
  -25.8710   65.9020   25.1910 N   0  0  0  0  0  0  0  0  0  0  0  0
  -26.4100   66.2190   24.0500 C   0  0  0  0  0  0  0  0  0  0  0  0
  -27.8390   66.6560   24.0140 C   0  0  0  0  0  0  0  0  0  0  0  0
  -25.7000   66.0870   22.8570 O   0  0  0  0  0  0  0  0  0  0  0  0
  -25.9180   66.6580   22.0500 H   0  0  0  0  0  0  0  0  0  0  0  0
  1  2  1  0  0  0  0
  2  3  2  0  0  0  0
  4  3  1  0  0  0  0
  4  7  1  0  0  0  0
  5  4  2  0  0  0  0
  6  1  2  0  0  0  0
  6  5  1  0  0  0  0
  7  9  2  0  0  0  0
  7  8  2  0  0  0  0
 10  7  1  0  0  0  0
 11 13  1  0  0  0  0
 11 10  1  0  0  0  0
 12 11  1  0  0  0  0
 14  1  1  0  0  0  0
 15 14  2  0  0  0  0
 16 15  1  0  0  0  0
 17 15  1  0  0  0  0
 18 17  1  0  0  0  0
M  END
>  <REMARK>
 VINA RESULT:      -5.9      1.622      1.989
  5 active torsions:
  status: ('A' for Active; 'I' for Inactive)
    1  A    between atoms: O1_2  and  C1_3 
    2  A    between atoms: N1_4  and  C2_5 
    3  A    between atoms: C5_8  and  S1_9 
    4  A    between atoms: S1_9  and  N2_12 
    5  A    between atoms: N2_12  and  S2_13 

>  <TORSDO>
F 5

$$$$
../pdbqt/decoy.vina_out.6.pdbqt
 OpenBabel06052021513D

 18 18  0  0  0  0  0  0  0  0999 V2000
  -25.9380   65.1530   25.8800 C   0  0  0  0  0  0  0  0  0  0  0  0
  -24.7990   65.8450   25.4470 C   0  0  0  0  0  0  0  0  0  0  0  0
  -23.5240   65.4230   25.8320 C   0  0  0  0  0  0  0  0  0  0  0  0
  -23.3700   64.2910   26.6410 C   0  0  0  0  0  0  0  0  0  0  0  0
  -24.5030   63.5720   27.0470 C   0  0  0  0  0  0  0  0  0  0  0  0
  -25.7790   63.9940   26.6630 C   0  0  0  0  0  0  0  0  0  0  0  0
  -21.7590   63.7790   27.1310 S   0  0  0  0  0  0  0  0  0  0  0  0
  -20.8480   64.9680   27.2670 O   0  0  0  0  0  0  0  0  0  0  0  0
  -21.8420   63.0790   28.4570 O   0  0  0  0  0  0  0  0  0  0  0  0
  -21.1120   62.7020   25.9610 N   0  0  0  0  0  0  0  0  0  0  0  0
  -19.8350   63.0850   25.1190 S   0  0  0  0  0  0  0  0  0  0  0  0
  -19.5380   61.6170   24.1190 C   0  0  0  0  0  0  0  0  0  0  0  0
  -20.4220   64.3100   23.9320 C   0  0  0  0  0  0  0  0  0  0  0  0
  -27.2280   65.6050   25.4370 N   0  0  0  0  0  0  0  0  0  0  0  0
  -27.5520   65.9370   24.2210 C   0  0  0  0  0  0  0  0  0  0  0  0
  -28.9380   66.4220   23.9420 C   0  0  0  0  0  0  0  0  0  0  0  0
  -26.6530   65.7800   23.1670 O   0  0  0  0  0  0  0  0  0  0  0  0
  -26.8620   65.1730   22.3840 H   0  0  0  0  0  0  0  0  0  0  0  0
  1  6  2  0  0  0  0
  2  3  2  0  0  0  0
  2  1  1  0  0  0  0
  3  4  1  0  0  0  0
  4  5  2  0  0  0  0
  4  7  1  0  0  0  0
  6  5  1  0  0  0  0
  7  8  2  0  0  0  0
  7  9  2  0  0  0  0
 10  7  1  0  0  0  0
 11 10  1  0  0  0  0
 12 11  1  0  0  0  0
 13 11  1  0  0  0  0
 14  1  1  0  0  0  0
 15 14  2  0  0  0  0
 16 15  1  0  0  0  0
 17 15  1  0  0  0  0
 18 17  1  0  0  0  0
M  END
>  <REMARK>
 VINA RESULT:      -5.8      1.571      2.154
  5 active torsions:
  status: ('A' for Active; 'I' for Inactive)
    1  A    between atoms: O1_2  and  C1_3 
    2  A    between atoms: N1_4  and  C2_5 
    3  A    between atoms: C5_8  and  S1_9 
    4  A    between atoms: S1_9  and  N2_12 
    5  A    between atoms: N2_12  and  S2_13 

>  <TORSDO>
F 5

$$$$
../pdbqt/decoy.vina_out.6.pdbqt
 OpenBabel06052021513D

 18 18  0  0  0  0  0  0  0  0999 V2000
  -19.2360   65.4350   23.6680 C   0  0  0  0  0  0  0  0  0  0  0  0
  -19.3320   64.4000   22.7300 C   0  0  0  0  0  0  0  0  0  0  0  0
  -18.2850   64.1490   21.8400 C   0  0  0  0  0  0  0  0  0  0  0  0
  -17.1170   64.9190   21.8910 C   0  0  0  0  0  0  0  0  0  0  0  0
  -16.9980   65.9320   22.8520 C   0  0  0  0  0  0  0  0  0  0  0  0
  -18.0460   66.1840   23.7410 C   0  0  0  0  0  0  0  0  0  0  0  0
  -15.8110   64.6030   20.7540 S   0  0  0  0  0  0  0  0  0  0  0  0
  -15.1270   63.3050   21.0850 O   0  0  0  0  0  0  0  0  0  0  0  0
  -16.3730   64.5130   19.3640 O   0  0  0  0  0  0  0  0  0  0  0  0
  -14.6640   65.8790   20.8190 N   0  0  0  0  0  0  0  0  0  0  0  0
  -13.1150   65.5850   20.7860 S   0  0  0  0  0  0  0  0  0  0  0  0
  -12.8300   65.0380   19.0940 C   0  0  0  0  0  0  0  0  0  0  0  0
  -12.3410   67.2130   20.8540 C   0  0  0  0  0  0  0  0  0  0  0  0
  -20.3240   65.6390   24.5830 N   0  0  0  0  0  0  0  0  0  0  0  0
  -21.1070   66.6780   24.6310 C   0  0  0  0  0  0  0  0  0  0  0  0
  -22.1730   66.7420   25.6770 C   0  0  0  0  0  0  0  0  0  0  0  0
  -21.0130   67.6940   23.6810 O   0  0  0  0  0  0  0  0  0  0  0  0
  -20.7210   67.5000   22.7310 H   0  0  0  0  0  0  0  0  0  0  0  0
  1  6  1  0  0  0  0
  1 14  1  0  0  0  0
  2  1  2  0  0  0  0
  3  4  2  0  0  0  0
  3  2  1  0  0  0  0
  4  5  1  0  0  0  0
  5  6  2  0  0  0  0
  7 10  1  0  0  0  0
  7  8  2  0  0  0  0
  7  4  1  0  0  0  0
  9  7  2  0  0  0  0
 11 10  1  0  0  0  0
 11 13  1  0  0  0  0
 12 11  1  0  0  0  0
 14 15  2  0  0  0  0
 15 16  1  0  0  0  0
 17 15  1  0  0  0  0
 18 17  1  0  0  0  0
M  END
>  <REMARK>
 VINA RESULT:      -5.6      5.419      7.595
  5 active torsions:
  status: ('A' for Active; 'I' for Inactive)
    1  A    between atoms: O1_2  and  C1_3 
    2  A    between atoms: N1_4  and  C2_5 
    3  A    between atoms: C5_8  and  S1_9 
    4  A    between atoms: S1_9  and  N2_12 
    5  A    between atoms: N2_12  and  S2_13 

>  <TORSDO>
F 5

$$$$
../pdbqt/decoy.vina_out.6.pdbqt
 OpenBabel06052021513D

 18 18  0  0  0  0  0  0  0  0999 V2000
  -25.1490   63.6490   27.0070 C   0  0  0  0  0  0  0  0  0  0  0  0
  -24.9370   64.8080   26.2490 C   0  0  0  0  0  0  0  0  0  0  0  0
  -23.6540   65.1430   25.8090 C   0  0  0  0  0  0  0  0  0  0  0  0
  -22.5670   64.3100   26.1050 C   0  0  0  0  0  0  0  0  0  0  0  0
  -22.7780   63.1300   26.8310 C   0  0  0  0  0  0  0  0  0  0  0  0
  -24.0610   62.7950   27.2720 C   0  0  0  0  0  0  0  0  0  0  0  0
  -20.9540   64.7520   25.5580 S   0  0  0  0  0  0  0  0  0  0  0  0
  -20.8190   66.2470   25.4690 O   0  0  0  0  0  0  0  0  0  0  0  0
  -19.9380   64.2320   26.5340 O   0  0  0  0  0  0  0  0  0  0  0  0
  -20.6580   64.0650   24.0130 N   0  0  0  0  0  0  0  0  0  0  0  0
  -21.1710   62.6180   23.6520 S   0  0  0  0  0  0  0  0  0  0  0  0
  -20.7720   62.4560   21.9040 C   0  0  0  0  0  0  0  0  0  0  0  0
  -20.0090   61.5060   24.4700 C   0  0  0  0  0  0  0  0  0  0  0  0
  -26.4890   63.3270   27.4140 N   0  0  0  0  0  0  0  0  0  0  0  0
  -27.0250   63.5840   28.5710 C   0  0  0  0  0  0  0  0  0  0  0  0
  -28.4290   63.1440   28.8390 C   0  0  0  0  0  0  0  0  0  0  0  0
  -26.3400   64.3230   29.5350 O   0  0  0  0  0  0  0  0  0  0  0  0
  -25.9760   63.8850   30.3720 H   0  0  0  0  0  0  0  0  0  0  0  0
  1  6  1  0  0  0  0
  1 14  1  0  0  0  0
  2  1  2  0  0  0  0
  3  4  2  0  0  0  0
  3  2  1  0  0  0  0
  4  5  1  0  0  0  0
  5  6  2  0  0  0  0
  7  4  1  0  0  0  0
  7  9  2  0  0  0  0
  8  7  2  0  0  0  0
 10  7  1  0  0  0  0
 11 10  1  0  0  0  0
 11 13  1  0  0  0  0
 12 11  1  0  0  0  0
 14 15  2  0  0  0  0
 15 16  1  0  0  0  0
 15 17  1  0  0  0  0
 17 18  1  0  0  0  0
M  END
>  <REMARK>
 VINA RESULT:      -5.5      2.728      3.354
  5 active torsions:
  status: ('A' for Active; 'I' for Inactive)
    1  A    between atoms: O1_2  and  C1_3 
    2  A    between atoms: N1_4  and  C2_5 
    3  A    between atoms: C5_8  and  S1_9 
    4  A    between atoms: S1_9  and  N2_12 
    5  A    between atoms: N2_12  and  S2_13 

>  <TORSDO>
F 5

$$$$
