../pdbqt/decoy.vina_out.67.pdbqt
 OpenBabel06052021513D

 19 20  0  0  0  0  0  0  0  0999 V2000
  -26.6460   63.2160   27.8410 C   0  0  0  0  0  0  0  0  0  0  0  0
  -25.5480   63.8710   27.3720 N   0  0  0  0  0  0  0  0  0  0  0  0
  -25.6080   64.7300   26.3200 C   0  0  0  0  0  0  0  0  0  0  0  0
  -24.4480   65.3730   25.8770 C   0  0  0  0  0  0  0  0  0  0  0  0
  -24.5050   66.2550   24.7960 C   0  0  0  0  0  0  0  0  0  0  0  0
  -25.7260   66.5140   24.1530 C   0  0  0  0  0  0  0  0  0  0  0  0
  -25.7740   67.4330   22.9690 C   0  0  0  0  0  0  0  0  0  0  0  0
  -26.8890   65.8570   24.5840 C   0  0  0  0  0  0  0  0  0  0  0  0
  -26.8400   64.9680   25.6720 C   0  0  0  0  0  0  0  0  0  0  0  0
  -27.9860   64.3000   26.1370 C   0  0  0  0  0  0  0  0  0  0  0  0
  -29.2240   64.4980   25.5330 O   0  0  0  0  0  0  0  0  0  0  0  0
  -27.8860   63.4250   27.2210 C   0  0  0  0  0  0  0  0  0  0  0  0
  -26.5500   62.2830   28.9890 C   0  0  0  0  0  0  0  0  0  0  0  0
  -26.5330   62.6560   30.2750 C   0  0  0  0  0  0  0  0  0  0  0  0
  -26.4340   61.6570   31.2460 O   0  0  0  0  0  0  0  0  0  0  0  0
  -26.4430   61.8510   32.2390 H   0  0  0  0  0  0  0  0  0  0  0  0
  -26.6190   64.0120   30.6260 O   0  0  0  0  0  0  0  0  0  0  0  0
  -25.6520   64.7190   31.3990 C   0  0  0  0  0  0  0  0  0  0  0  0
  -24.3150   64.7780   30.6690 C   0  0  0  0  0  0  0  0  0  0  0  0
  1 13  1  0  0  0  0
  2  1  1  0  0  0  0
  3  2  2  0  0  0  0
  4  3  1  0  0  0  0
  5  4  2  0  0  0  0
  6  8  2  0  0  0  0
  6  5  1  0  0  0  0
  7  6  1  0  0  0  0
  8  9  1  0  0  0  0
  9 10  2  0  0  0  0
  9  3  1  0  0  0  0
 10 12  1  0  0  0  0
 11 10  1  0  0  0  0
 12  1  2  0  0  0  0
 13 14  2  0  0  0  0
 14 17  1  0  0  0  0
 14 15  1  0  0  0  0
 15 16  1  0  0  0  0
 17 18  1  0  0  0  0
 19 18  1  0  0  0  0
M  END
>  <MODEL>
1

>  <REMARK>
 VINA RESULT:      -7.7      0.000      0.000
  4 active torsions:
  status: ('A' for Active; 'I' for Inactive)
    1  A    between atoms: O1_2  and  C1_3 
    2  A    between atoms: C1_3  and  O2_4 
    3  A    between atoms: O2_4  and  C2_5 
    4  A    between atoms: C4_7  and  C5_8 

>  <TORSDO>
F 4

$$$$
../pdbqt/decoy.vina_out.67.pdbqt
 OpenBabel06052021513D

 19 20  0  0  0  0  0  0  0  0999 V2000
  -23.4410   65.9450   25.7200 C   0  0  0  0  0  0  0  0  0  0  0  0
  -24.4600   65.2830   26.3350 N   0  0  0  0  0  0  0  0  0  0  0  0
  -25.7200   65.2540   25.8250 C   0  0  0  0  0  0  0  0  0  0  0  0
  -26.7310   64.5630   26.5010 C   0  0  0  0  0  0  0  0  0  0  0  0
  -28.0270   64.5310   25.9800 C   0  0  0  0  0  0  0  0  0  0  0  0
  -28.3230   65.1790   24.7710 C   0  0  0  0  0  0  0  0  0  0  0  0
  -29.7250   65.1730   24.2370 C   0  0  0  0  0  0  0  0  0  0  0  0
  -27.3150   65.8880   24.0990 C   0  0  0  0  0  0  0  0  0  0  0  0
  -26.0090   65.9250   24.6160 C   0  0  0  0  0  0  0  0  0  0  0  0
  -24.9720   66.6160   23.9650 C   0  0  0  0  0  0  0  0  0  0  0  0
  -25.2030   67.2950   22.7730 O   0  0  0  0  0  0  0  0  0  0  0  0
  -23.6900   66.6250   24.5190 C   0  0  0  0  0  0  0  0  0  0  0  0
  -22.0780   65.9620   26.3010 C   0  0  0  0  0  0  0  0  0  0  0  0
  -21.1680   64.9920   26.1430 C   0  0  0  0  0  0  0  0  0  0  0  0
  -19.9240   65.1510   26.7580 O   0  0  0  0  0  0  0  0  0  0  0  0
  -19.4470   64.4010   27.2380 H   0  0  0  0  0  0  0  0  0  0  0  0
  -21.4640   63.8550   25.3740 O   0  0  0  0  0  0  0  0  0  0  0  0
  -21.0530   63.6520   24.0240 C   0  0  0  0  0  0  0  0  0  0  0  0
  -21.9150   62.5900   23.3510 C   0  0  0  0  0  0  0  0  0  0  0  0
  1 13  1  0  0  0  0
  1  2  2  0  0  0  0
  3  2  1  0  0  0  0
  3  4  2  0  0  0  0
  5  4  1  0  0  0  0
  6  5  2  0  0  0  0
  7  6  1  0  0  0  0
  8  9  2  0  0  0  0
  8  6  1  0  0  0  0
  9  3  1  0  0  0  0
 10 12  2  0  0  0  0
 10  9  1  0  0  0  0
 11 10  1  0  0  0  0
 12  1  1  0  0  0  0
 14 13  2  0  0  0  0
 14 15  1  0  0  0  0
 15 16  1  0  0  0  0
 17 14  1  0  0  0  0
 18 17  1  0  0  0  0
 19 18  1  0  0  0  0
M  END
>  <REMARK>
 VINA RESULT:      -7.5      3.692      5.437
  4 active torsions:
  status: ('A' for Active; 'I' for Inactive)
    1  A    between atoms: O1_2  and  C1_3 
    2  A    between atoms: C1_3  and  O2_4 
    3  A    between atoms: O2_4  and  C2_5 
    4  A    between atoms: C4_7  and  C5_8 

>  <TORSDO>
F 4

$$$$
../pdbqt/decoy.vina_out.67.pdbqt
 OpenBabel06052021513D

 19 20  0  0  0  0  0  0  0  0999 V2000
  -25.7830   63.1260   27.8700 C   0  0  0  0  0  0  0  0  0  0  0  0
  -26.8100   63.7530   27.2310 N   0  0  0  0  0  0  0  0  0  0  0  0
  -26.6050   64.6220   26.2060 C   0  0  0  0  0  0  0  0  0  0  0  0
  -27.6970   65.2420   25.5890 C   0  0  0  0  0  0  0  0  0  0  0  0
  -27.4920   66.1360   24.5360 C   0  0  0  0  0  0  0  0  0  0  0  0
  -26.1930   66.4090   24.0790 C   0  0  0  0  0  0  0  0  0  0  0  0
  -25.9770   67.3990   22.9730 C   0  0  0  0  0  0  0  0  0  0  0  0
  -25.0940   65.8020   24.7070 C   0  0  0  0  0  0  0  0  0  0  0  0
  -25.2930   64.9010   25.7680 C   0  0  0  0  0  0  0  0  0  0  0  0
  -24.2180   64.2660   26.4130 C   0  0  0  0  0  0  0  0  0  0  0  0
  -22.9040   64.5080   26.0210 O   0  0  0  0  0  0  0  0  0  0  0  0
  -24.4650   63.3800   27.4640 C   0  0  0  0  0  0  0  0  0  0  0  0
  -26.0350   62.1850   28.9870 C   0  0  0  0  0  0  0  0  0  0  0  0
  -26.3010   62.5510   30.2480 C   0  0  0  0  0  0  0  0  0  0  0  0
  -26.5120   61.5440   31.1930 O   0  0  0  0  0  0  0  0  0  0  0  0
  -27.2620   61.5740   31.8700 H   0  0  0  0  0  0  0  0  0  0  0  0
  -26.3700   63.9090   30.5960 O   0  0  0  0  0  0  0  0  0  0  0  0
  -25.6330   64.5210   31.6520 C   0  0  0  0  0  0  0  0  0  0  0  0
  -24.2450   64.9310   31.1740 C   0  0  0  0  0  0  0  0  0  0  0  0
  1 13  1  0  0  0  0
  2  1  2  0  0  0  0
  3  2  1  0  0  0  0
  4  3  2  0  0  0  0
  5  4  1  0  0  0  0
  6  5  2  0  0  0  0
  6  8  1  0  0  0  0
  7  6  1  0  0  0  0
  8  9  2  0  0  0  0
  9  3  1  0  0  0  0
  9 10  1  0  0  0  0
 10 12  2  0  0  0  0
 11 10  1  0  0  0  0
 12  1  1  0  0  0  0
 13 14  2  0  0  0  0
 14 17  1  0  0  0  0
 14 15  1  0  0  0  0
 15 16  1  0  0  0  0
 17 18  1  0  0  0  0
 19 18  1  0  0  0  0
M  END
>  <REMARK>
 VINA RESULT:      -7.2      1.624      2.310
  4 active torsions:
  status: ('A' for Active; 'I' for Inactive)
    1  A    between atoms: O1_2  and  C1_3 
    2  A    between atoms: C1_3  and  O2_4 
    3  A    between atoms: O2_4  and  C2_5 
    4  A    between atoms: C4_7  and  C5_8 

>  <TORSDO>
F 4

$$$$
../pdbqt/decoy.vina_out.67.pdbqt
 OpenBabel06052021513D

 19 20  0  0  0  0  0  0  0  0999 V2000
  -23.0360   66.3330   25.3150 C   0  0  0  0  0  0  0  0  0  0  0  0
  -23.8900   66.7390   24.3350 N   0  0  0  0  0  0  0  0  0  0  0  0
  -25.2020   66.3850   24.3210 C   0  0  0  0  0  0  0  0  0  0  0  0
  -26.0330   66.8280   23.2860 C   0  0  0  0  0  0  0  0  0  0  0  0
  -27.3820   66.4660   23.2680 C   0  0  0  0  0  0  0  0  0  0  0  0
  -27.9180   65.6690   24.2910 C   0  0  0  0  0  0  0  0  0  0  0  0
  -29.3580   65.2520   24.2450 C   0  0  0  0  0  0  0  0  0  0  0  0
  -27.0830   65.2080   25.3210 C   0  0  0  0  0  0  0  0  0  0  0  0
  -25.7240   65.5680   25.3470 C   0  0  0  0  0  0  0  0  0  0  0  0
  -24.8610   65.1350   26.3680 C   0  0  0  0  0  0  0  0  0  0  0  0
  -25.3240   64.3270   27.4020 O   0  0  0  0  0  0  0  0  0  0  0  0
  -23.5180   65.5180   26.3500 C   0  0  0  0  0  0  0  0  0  0  0  0
  -21.6090   66.7310   25.3030 C   0  0  0  0  0  0  0  0  0  0  0  0
  -20.6270   66.0370   24.7120 C   0  0  0  0  0  0  0  0  0  0  0  0
  -19.3270   66.5420   24.7920 O   0  0  0  0  0  0  0  0  0  0  0  0
  -18.6320   66.1740   25.4280 H   0  0  0  0  0  0  0  0  0  0  0  0
  -20.9090   64.8440   24.0290 O   0  0  0  0  0  0  0  0  0  0  0  0
  -20.7600   63.5350   24.5740 C   0  0  0  0  0  0  0  0  0  0  0  0
  -21.8760   62.6180   24.0880 C   0  0  0  0  0  0  0  0  0  0  0  0
  1 12  2  0  0  0  0
  2  1  1  0  0  0  0
  3  2  2  0  0  0  0
  3  9  1  0  0  0  0
  4  3  1  0  0  0  0
  5  4  2  0  0  0  0
  5  6  1  0  0  0  0
  6  8  2  0  0  0  0
  7  6  1  0  0  0  0
  8  9  1  0  0  0  0
  9 10  2  0  0  0  0
 10 11  1  0  0  0  0
 12 10  1  0  0  0  0
 13  1  1  0  0  0  0
 14 15  1  0  0  0  0
 14 13  2  0  0  0  0
 15 16  1  0  0  0  0
 17 18  1  0  0  0  0
 17 14  1  0  0  0  0
 19 18  1  0  0  0  0
M  END
>  <REMARK>
 VINA RESULT:      -7.1      3.903      5.835
  4 active torsions:
  status: ('A' for Active; 'I' for Inactive)
    1  A    between atoms: O1_2  and  C1_3 
    2  A    between atoms: C1_3  and  O2_4 
    3  A    between atoms: O2_4  and  C2_5 
    4  A    between atoms: C4_7  and  C5_8 

>  <TORSDO>
F 4

$$$$
../pdbqt/decoy.vina_out.67.pdbqt
 OpenBabel06052021513D

 19 20  0  0  0  0  0  0  0  0999 V2000
  -23.4730   64.3330   26.8440 C   0  0  0  0  0  0  0  0  0  0  0  0
  -23.6870   65.2270   25.8390 N   0  0  0  0  0  0  0  0  0  0  0  0
  -24.9340   65.5290   25.3880 C   0  0  0  0  0  0  0  0  0  0  0  0
  -25.0950   66.4520   24.3490 C   0  0  0  0  0  0  0  0  0  0  0  0
  -26.3730   66.7650   23.8820 C   0  0  0  0  0  0  0  0  0  0  0  0
  -27.5060   66.1680   24.4590 C   0  0  0  0  0  0  0  0  0  0  0  0
  -28.8740   66.4800   23.9270 C   0  0  0  0  0  0  0  0  0  0  0  0
  -27.3470   65.2290   25.4890 C   0  0  0  0  0  0  0  0  0  0  0  0
  -26.0630   64.9090   25.9640 C   0  0  0  0  0  0  0  0  0  0  0  0
  -25.8660   63.9810   27.0020 C   0  0  0  0  0  0  0  0  0  0  0  0
  -26.9450   63.3400   27.6030 O   0  0  0  0  0  0  0  0  0  0  0  0
  -24.5710   63.6940   27.4400 C   0  0  0  0  0  0  0  0  0  0  0  0
  -22.1030   64.0200   27.3140 C   0  0  0  0  0  0  0  0  0  0  0  0
  -21.3440   63.0220   26.8420 C   0  0  0  0  0  0  0  0  0  0  0  0
  -20.0710   62.8510   27.3910 O   0  0  0  0  0  0  0  0  0  0  0  0
  -19.2230   62.9130   26.8440 H   0  0  0  0  0  0  0  0  0  0  0  0
  -21.8200   62.1850   25.8220 O   0  0  0  0  0  0  0  0  0  0  0  0
  -21.2810   62.1150   24.5040 C   0  0  0  0  0  0  0  0  0  0  0  0
  -22.1650   62.8720   23.5180 C   0  0  0  0  0  0  0  0  0  0  0  0
  1 13  1  0  0  0  0
  1 12  2  0  0  0  0
  2  1  1  0  0  0  0
  3  2  2  0  0  0  0
  3  9  1  0  0  0  0
  4  3  1  0  0  0  0
  5  4  2  0  0  0  0
  5  6  1  0  0  0  0
  6  8  2  0  0  0  0
  7  6  1  0  0  0  0
  8  9  1  0  0  0  0
  9 10  2  0  0  0  0
 10 12  1  0  0  0  0
 10 11  1  0  0  0  0
 14 13  2  0  0  0  0
 14 15  1  0  0  0  0
 16 15  1  0  0  0  0
 17 14  1  0  0  0  0
 18 17  1  0  0  0  0
 19 18  1  0  0  0  0
M  END
>  <REMARK>
 VINA RESULT:      -7.1      3.345      4.583
  4 active torsions:
  status: ('A' for Active; 'I' for Inactive)
    1  A    between atoms: O1_2  and  C1_3 
    2  A    between atoms: C1_3  and  O2_4 
    3  A    between atoms: O2_4  and  C2_5 
    4  A    between atoms: C4_7  and  C5_8 

>  <TORSDO>
F 4

$$$$
../pdbqt/decoy.vina_out.67.pdbqt
 OpenBabel06052021513D

 19 20  0  0  0  0  0  0  0  0999 V2000
  -26.7760   64.7150   26.3820 C   0  0  0  0  0  0  0  0  0  0  0  0
  -25.5210   64.6360   26.9050 N   0  0  0  0  0  0  0  0  0  0  0  0
  -24.4530   65.2470   26.3270 C   0  0  0  0  0  0  0  0  0  0  0  0
  -23.1850   65.1280   26.9060 C   0  0  0  0  0  0  0  0  0  0  0  0
  -22.0840   65.7540   26.3160 C   0  0  0  0  0  0  0  0  0  0  0  0
  -22.2420   66.5160   25.1470 C   0  0  0  0  0  0  0  0  0  0  0  0
  -21.0500   67.1530   24.4970 C   0  0  0  0  0  0  0  0  0  0  0  0
  -23.5100   66.6230   24.5550 C   0  0  0  0  0  0  0  0  0  0  0  0
  -24.6230   65.9960   25.1430 C   0  0  0  0  0  0  0  0  0  0  0  0
  -25.9090   66.0890   24.5840 C   0  0  0  0  0  0  0  0  0  0  0  0
  -26.1300   66.8130   23.4160 O   0  0  0  0  0  0  0  0  0  0  0  0
  -26.9830   65.4480   25.2040 C   0  0  0  0  0  0  0  0  0  0  0  0
  -27.9220   64.0360   27.0310 C   0  0  0  0  0  0  0  0  0  0  0  0
  -27.9460   63.6310   28.3080 C   0  0  0  0  0  0  0  0  0  0  0  0
  -29.1010   63.0000   28.7750 O   0  0  0  0  0  0  0  0  0  0  0  0
  -29.6270   63.3340   29.5710 H   0  0  0  0  0  0  0  0  0  0  0  0
  -26.8400   63.8470   29.1450 O   0  0  0  0  0  0  0  0  0  0  0  0
  -26.1910   62.8400   29.9180 C   0  0  0  0  0  0  0  0  0  0  0  0
  -25.7130   61.7000   29.0260 C   0  0  0  0  0  0  0  0  0  0  0  0
  1  2  2  0  0  0  0
  1 13  1  0  0  0  0
  3  2  1  0  0  0  0
  3  4  2  0  0  0  0
  5  4  1  0  0  0  0
  6  5  2  0  0  0  0
  7  6  1  0  0  0  0
  8  9  2  0  0  0  0
  8  6  1  0  0  0  0
  9  3  1  0  0  0  0
 10  9  1  0  0  0  0
 10 12  2  0  0  0  0
 11 10  1  0  0  0  0
 12  1  1  0  0  0  0
 13 14  2  0  0  0  0
 14 15  1  0  0  0  0
 14 17  1  0  0  0  0
 15 16  1  0  0  0  0
 17 18  1  0  0  0  0
 19 18  1  0  0  0  0
M  END
>  <REMARK>
 VINA RESULT:      -6.9      1.913      3.031
  4 active torsions:
  status: ('A' for Active; 'I' for Inactive)
    1  A    between atoms: O1_2  and  C1_3 
    2  A    between atoms: C1_3  and  O2_4 
    3  A    between atoms: O2_4  and  C2_5 
    4  A    between atoms: C4_7  and  C5_8 

>  <TORSDO>
F 4

$$$$
../pdbqt/decoy.vina_out.67.pdbqt
 OpenBabel06052021513D

 19 20  0  0  0  0  0  0  0  0999 V2000
  -23.6120   65.5220   25.0710 C   0  0  0  0  0  0  0  0  0  0  0  0
  -23.3350   64.4750   25.8970 N   0  0  0  0  0  0  0  0  0  0  0  0
  -24.3010   63.8410   26.6140 C   0  0  0  0  0  0  0  0  0  0  0  0
  -23.9590   62.7730   27.4510 C   0  0  0  0  0  0  0  0  0  0  0  0
  -24.9480   62.1190   28.1900 C   0  0  0  0  0  0  0  0  0  0  0  0
  -26.2910   62.5160   28.0900 C   0  0  0  0  0  0  0  0  0  0  0  0
  -27.3410   61.8350   28.9150 C   0  0  0  0  0  0  0  0  0  0  0  0
  -26.6340   63.5980   27.2640 C   0  0  0  0  0  0  0  0  0  0  0  0
  -25.6450   64.2620   26.5170 C   0  0  0  0  0  0  0  0  0  0  0  0
  -25.9530   65.3420   25.6720 C   0  0  0  0  0  0  0  0  0  0  0  0
  -27.2610   65.7980   25.5420 O   0  0  0  0  0  0  0  0  0  0  0  0
  -24.9350   65.9710   24.9510 C   0  0  0  0  0  0  0  0  0  0  0  0
  -22.5390   66.1970   24.3040 C   0  0  0  0  0  0  0  0  0  0  0  0
  -21.6430   67.0450   24.8270 C   0  0  0  0  0  0  0  0  0  0  0  0
  -20.6930   67.6060   23.9710 O   0  0  0  0  0  0  0  0  0  0  0  0
  -19.8010   67.1710   23.7780 H   0  0  0  0  0  0  0  0  0  0  0  0
  -21.6630   67.3470   26.1980 O   0  0  0  0  0  0  0  0  0  0  0  0
  -20.8030   66.7670   27.1750 C   0  0  0  0  0  0  0  0  0  0  0  0
  -21.5800   66.4160   28.4390 C   0  0  0  0  0  0  0  0  0  0  0  0
  1  2  1  0  0  0  0
  2  3  2  0  0  0  0
  3  4  1  0  0  0  0
  4  5  2  0  0  0  0
  6  5  1  0  0  0  0
  6  7  1  0  0  0  0
  8  6  2  0  0  0  0
  9  3  1  0  0  0  0
  9  8  1  0  0  0  0
 10  9  2  0  0  0  0
 11 10  1  0  0  0  0
 12  1  2  0  0  0  0
 12 10  1  0  0  0  0
 13 14  2  0  0  0  0
 13  1  1  0  0  0  0
 14 17  1  0  0  0  0
 15 14  1  0  0  0  0
 16 15  1  0  0  0  0
 17 18  1  0  0  0  0
 18 19  1  0  0  0  0
M  END
>  <REMARK>
 VINA RESULT:      -6.8      3.467      5.683
  4 active torsions:
  status: ('A' for Active; 'I' for Inactive)
    1  A    between atoms: O1_2  and  C1_3 
    2  A    between atoms: C1_3  and  O2_4 
    3  A    between atoms: O2_4  and  C2_5 
    4  A    between atoms: C4_7  and  C5_8 

>  <TORSDO>
F 4

$$$$
../pdbqt/decoy.vina_out.67.pdbqt
 OpenBabel06052021513D

 19 20  0  0  0  0  0  0  0  0999 V2000
  -22.9240   65.1620   26.1780 C   0  0  0  0  0  0  0  0  0  0  0  0
  -23.3690   65.9490   25.1600 N   0  0  0  0  0  0  0  0  0  0  0  0
  -24.6900   66.0760   24.8620 C   0  0  0  0  0  0  0  0  0  0  0  0
  -25.0900   66.8950   23.8010 C   0  0  0  0  0  0  0  0  0  0  0  0
  -26.4460   67.0270   23.4920 C   0  0  0  0  0  0  0  0  0  0  0  0
  -27.4170   66.3540   24.2490 C   0  0  0  0  0  0  0  0  0  0  0  0
  -28.8680   66.4700   23.8880 C   0  0  0  0  0  0  0  0  0  0  0  0
  -27.0170   65.5180   25.3040 C   0  0  0  0  0  0  0  0  0  0  0  0
  -25.6550   65.3790   25.6210 C   0  0  0  0  0  0  0  0  0  0  0  0
  -25.2180   64.5590   26.6760 C   0  0  0  0  0  0  0  0  0  0  0  0
  -26.1280   63.8490   27.4540 O   0  0  0  0  0  0  0  0  0  0  0  0
  -23.8530   64.4520   26.9530 C   0  0  0  0  0  0  0  0  0  0  0  0
  -21.4780   65.0400   26.4780 C   0  0  0  0  0  0  0  0  0  0  0  0
  -20.7510   65.9640   27.1210 C   0  0  0  0  0  0  0  0  0  0  0  0
  -19.3940   65.7050   27.3250 O   0  0  0  0  0  0  0  0  0  0  0  0
  -19.0000   64.7750   27.2930 H   0  0  0  0  0  0  0  0  0  0  0  0
  -21.3480   67.1500   27.5780 O   0  0  0  0  0  0  0  0  0  0  0  0
  -20.9110   68.4650   27.2460 C   0  0  0  0  0  0  0  0  0  0  0  0
  -20.9480   68.6810   25.7370 C   0  0  0  0  0  0  0  0  0  0  0  0
  1 13  1  0  0  0  0
  1 12  2  0  0  0  0
  2  1  1  0  0  0  0
  3  2  2  0  0  0  0
  3  9  1  0  0  0  0
  4  3  1  0  0  0  0
  5  4  2  0  0  0  0
  5  6  1  0  0  0  0
  6  8  2  0  0  0  0
  7  6  1  0  0  0  0
  8  9  1  0  0  0  0
  9 10  2  0  0  0  0
 10 12  1  0  0  0  0
 10 11  1  0  0  0  0
 13 14  2  0  0  0  0
 14 15  1  0  0  0  0
 14 17  1  0  0  0  0
 16 15  1  0  0  0  0
 18 17  1  0  0  0  0
 19 18  1  0  0  0  0
M  END
>  <REMARK>
 VINA RESULT:      -6.8      3.486      4.914
  4 active torsions:
  status: ('A' for Active; 'I' for Inactive)
    1  A    between atoms: O1_2  and  C1_3 
    2  A    between atoms: C1_3  and  O2_4 
    3  A    between atoms: O2_4  and  C2_5 
    4  A    between atoms: C4_7  and  C5_8 

>  <TORSDO>
F 4

$$$$
../pdbqt/decoy.vina_out.67.pdbqt
 OpenBabel06052021513D

 19 20  0  0  0  0  0  0  0  0999 V2000
  -23.0010   66.0780   25.2390 C   0  0  0  0  0  0  0  0  0  0  0  0
  -22.8760   65.1020   26.1810 N   0  0  0  0  0  0  0  0  0  0  0  0
  -23.9490   64.4340   26.6820 C   0  0  0  0  0  0  0  0  0  0  0  0
  -23.7620   63.4430   27.6510 C   0  0  0  0  0  0  0  0  0  0  0  0
  -24.8620   62.7540   28.1690 C   0  0  0  0  0  0  0  0  0  0  0  0
  -26.1580   63.0390   27.7130 C   0  0  0  0  0  0  0  0  0  0  0  0
  -27.3380   62.3230   28.3010 C   0  0  0  0  0  0  0  0  0  0  0  0
  -26.3500   64.0450   26.7530 C   0  0  0  0  0  0  0  0  0  0  0  0
  -25.2490   64.7420   26.2270 C   0  0  0  0  0  0  0  0  0  0  0  0
  -25.4020   65.7480   25.2570 C   0  0  0  0  0  0  0  0  0  0  0  0
  -26.6620   66.0920   24.7760 O   0  0  0  0  0  0  0  0  0  0  0  0
  -24.2770   66.4140   24.7650 C   0  0  0  0  0  0  0  0  0  0  0  0
  -21.8140   66.7920   24.7130 C   0  0  0  0  0  0  0  0  0  0  0  0
  -20.6530   66.2080   24.3900 C   0  0  0  0  0  0  0  0  0  0  0  0
  -19.6220   67.0190   23.9090 O   0  0  0  0  0  0  0  0  0  0  0  0
  -18.9990   67.5350   24.5150 H   0  0  0  0  0  0  0  0  0  0  0  0
  -20.4900   64.8210   24.5280 O   0  0  0  0  0  0  0  0  0  0  0  0
  -20.5210   63.8840   23.4540 C   0  0  0  0  0  0  0  0  0  0  0  0
  -21.6810   62.9090   23.6220 C   0  0  0  0  0  0  0  0  0  0  0  0
  1  2  1  0  0  0  0
  2  3  2  0  0  0  0
  3  4  1  0  0  0  0
  4  5  2  0  0  0  0
  6  5  1  0  0  0  0
  6  7  1  0  0  0  0
  8  6  2  0  0  0  0
  9  3  1  0  0  0  0
  9  8  1  0  0  0  0
 10  9  2  0  0  0  0
 11 10  1  0  0  0  0
 12  1  2  0  0  0  0
 12 10  1  0  0  0  0
 13  1  1  0  0  0  0
 14 17  1  0  0  0  0
 14 13  2  0  0  0  0
 15 14  1  0  0  0  0
 15 16  1  0  0  0  0
 18 19  1  0  0  0  0
 18 17  1  0  0  0  0
M  END
>  <REMARK>
 VINA RESULT:      -6.7      3.942      6.282
  4 active torsions:
  status: ('A' for Active; 'I' for Inactive)
    1  A    between atoms: O1_2  and  C1_3 
    2  A    between atoms: C1_3  and  O2_4 
    3  A    between atoms: O2_4  and  C2_5 
    4  A    between atoms: C4_7  and  C5_8 

>  <TORSDO>
F 4

$$$$
