../pdbqt/decoy.vina_out.33.pdbqt
 OpenBabel06052021513D

 24 26  0  0  0  0  0  0  0  0999 V2000
  -23.5880   63.6410   25.9610 C   0  0  0  0  0  0  0  0  0  0  0  0
  -22.2600   63.1860   25.3980 C   0  0  0  0  0  0  0  0  0  0  0  0
  -21.1460   62.9620   26.2300 C   0  0  0  0  0  0  0  0  0  0  0  0
  -19.9400   62.5160   25.6800 C   0  0  0  0  0  0  0  0  0  0  0  0
  -21.2250   63.2140   27.9720 Cl  0  0  0  0  0  0  0  0  0  0  0  0
  -19.8270   62.2740   24.2990 C   0  0  0  0  0  0  0  0  0  0  0  0
  -20.9360   62.4790   23.4670 C   0  0  0  0  0  0  0  0  0  0  0  0
  -22.1500   62.9290   24.0210 C   0  0  0  0  0  0  0  0  0  0  0  0
  -18.6300   61.8270   23.7160 O   0  0  0  0  0  0  0  0  0  0  0  0
  -17.4610   62.6230   23.5620 C   0  0  0  0  0  0  0  0  0  0  0  0
  -20.7950   62.2230   22.0930 O   0  0  0  0  0  0  0  0  0  0  0  0
  -20.3250   63.1680   21.1380 C   0  0  0  0  0  0  0  0  0  0  0  0
  -23.7290   65.1430   25.9710 C   0  0  0  0  0  0  0  0  0  0  0  0
  -22.9890   65.8430   26.7150 O   0  0  0  0  0  0  0  0  0  0  0  0
  -24.7410   65.8000   25.1160 C   0  0  0  0  0  0  0  0  0  0  0  0
  -24.4870   66.6940   24.0750 C   0  0  0  0  0  0  0  0  0  0  0  0
  -25.6430   67.1020   23.5050 N   0  0  0  0  0  0  0  0  0  0  0  0
  -26.6280   66.4780   24.1730 C   0  0  0  0  0  0  0  0  0  0  0  0
  -25.7450   67.7680   22.7080 H   0  0  0  0  0  0  0  0  0  0  0  0
  -27.9980   66.5890   23.9410 C   0  0  0  0  0  0  0  0  0  0  0  0
  -26.1220   65.6740   25.1640 C   0  0  0  0  0  0  0  0  0  0  0  0
  -28.8660   65.8450   24.7600 C   0  0  0  0  0  0  0  0  0  0  0  0
  -28.3510   65.0180   25.7800 C   0  0  0  0  0  0  0  0  0  0  0  0
  -26.9640   64.9250   25.9920 C   0  0  0  0  0  0  0  0  0  0  0  0
  1 13  1  0  0  0  0
  2  1  1  0  0  0  0
  2  3  2  0  0  0  0
  3  5  1  0  0  0  0
  4  3  1  0  0  0  0
  6  4  2  0  0  0  0
  7  8  2  0  0  0  0
  7  6  1  0  0  0  0
  8  2  1  0  0  0  0
  9  6  1  0  0  0  0
 10  9  1  0  0  0  0
 11  7  1  0  0  0  0
 12 11  1  0  0  0  0
 13 14  2  0  0  0  0
 15 21  1  0  0  0  0
 15 13  1  0  0  0  0
 16 15  2  0  0  0  0
 17 16  1  0  0  0  0
 17 18  1  0  0  0  0
 18 21  1  0  0  0  0
 19 17  1  0  0  0  0
 20 18  2  0  0  0  0
 20 22  1  0  0  0  0
 21 24  2  0  0  0  0
 22 23  2  0  0  0  0
 23 24  1  0  0  0  0
M  END
>  <MODEL>
1

>  <REMARK>
 VINA RESULT:      -8.5      0.000      0.000
  5 active torsions:
  status: ('A' for Active; 'I' for Inactive)
    1  A    between atoms: O1_2  and  C2_3 
    2  A    between atoms: C5_7  and  C6_8 
    3  A    between atoms: C6_8  and  C7_9 
    4  A    between atoms: C7_9  and  C8_11 
    5  A    between atoms: C17_21  and  O3_22 

>  <TORSDO>
F 5

$$$$
../pdbqt/decoy.vina_out.33.pdbqt
 OpenBabel06052021513D

 24 26  0  0  0  0  0  0  0  0999 V2000
  -24.7800   62.7160   27.4220 C   0  0  0  0  0  0  0  0  0  0  0  0
  -23.3780   63.0970   27.0010 C   0  0  0  0  0  0  0  0  0  0  0  0
  -22.3600   63.3180   27.9500 C   0  0  0  0  0  0  0  0  0  0  0  0
  -21.0680   63.6420   27.5260 C   0  0  0  0  0  0  0  0  0  0  0  0
  -22.6610   63.1830   29.6810 Cl  0  0  0  0  0  0  0  0  0  0  0  0
  -20.7640   63.7390   26.1560 C   0  0  0  0  0  0  0  0  0  0  0  0
  -21.7680   63.5050   25.2070 C   0  0  0  0  0  0  0  0  0  0  0  0
  -23.0700   63.1790   25.6340 C   0  0  0  0  0  0  0  0  0  0  0  0
  -19.4770   64.0640   25.6990 O   0  0  0  0  0  0  0  0  0  0  0  0
  -18.4380   63.1180   25.4730 C   0  0  0  0  0  0  0  0  0  0  0  0
  -21.4340   63.6020   23.8460 O   0  0  0  0  0  0  0  0  0  0  0  0
  -21.4850   62.5210   22.9210 C   0  0  0  0  0  0  0  0  0  0  0  0
  -25.6480   63.9190   27.7020 C   0  0  0  0  0  0  0  0  0  0  0  0
  -25.6030   64.4830   28.8280 O   0  0  0  0  0  0  0  0  0  0  0  0
  -26.5600   64.4350   26.6580 C   0  0  0  0  0  0  0  0  0  0  0  0
  -27.9180   64.1450   26.5320 C   0  0  0  0  0  0  0  0  0  0  0  0
  -28.4450   64.7860   25.4650 N   0  0  0  0  0  0  0  0  0  0  0  0
  -27.4370   65.4780   24.9110 C   0  0  0  0  0  0  0  0  0  0  0  0
  -29.4370   64.7470   25.1400 H   0  0  0  0  0  0  0  0  0  0  0  0
  -27.5010   66.2940   23.7820 C   0  0  0  0  0  0  0  0  0  0  0  0
  -26.2680   65.2930   25.6070 C   0  0  0  0  0  0  0  0  0  0  0  0
  -26.3210   66.9330   23.3640 C   0  0  0  0  0  0  0  0  0  0  0  0
  -25.1170   66.7460   24.0760 C   0  0  0  0  0  0  0  0  0  0  0  0
  -25.0800   65.9170   25.2120 C   0  0  0  0  0  0  0  0  0  0  0  0
  1 13  1  0  0  0  0
  2  1  1  0  0  0  0
  2  3  2  0  0  0  0
  3  5  1  0  0  0  0
  4  3  1  0  0  0  0
  6  4  2  0  0  0  0
  7  8  2  0  0  0  0
  7  6  1  0  0  0  0
  8  2  1  0  0  0  0
  9  6  1  0  0  0  0
 10  9  1  0  0  0  0
 11  7  1  0  0  0  0
 12 11  1  0  0  0  0
 13 14  2  0  0  0  0
 15 13  1  0  0  0  0
 16 15  2  0  0  0  0
 17 16  1  0  0  0  0
 18 17  1  0  0  0  0
 18 21  2  0  0  0  0
 19 17  1  0  0  0  0
 20 18  1  0  0  0  0
 21 15  1  0  0  0  0
 22 20  2  0  0  0  0
 22 23  1  0  0  0  0
 23 24  2  0  0  0  0
 24 21  1  0  0  0  0
M  END
>  <REMARK>
 VINA RESULT:      -8.3      1.868      2.699
  5 active torsions:
  status: ('A' for Active; 'I' for Inactive)
    1  A    between atoms: O1_2  and  C2_3 
    2  A    between atoms: C5_7  and  C6_8 
    3  A    between atoms: C6_8  and  C7_9 
    4  A    between atoms: C7_9  and  C8_11 
    5  A    between atoms: C17_21  and  O3_22 

>  <TORSDO>
F 5

$$$$
../pdbqt/decoy.vina_out.33.pdbqt
 OpenBabel06052021513D

 24 26  0  0  0  0  0  0  0  0999 V2000
  -22.8580   65.6800   26.3160 C   0  0  0  0  0  0  0  0  0  0  0  0
  -21.5530   65.9860   25.6160 C   0  0  0  0  0  0  0  0  0  0  0  0
  -21.0000   65.1000   24.6700 C   0  0  0  0  0  0  0  0  0  0  0  0
  -19.8050   65.4260   24.0210 C   0  0  0  0  0  0  0  0  0  0  0  0
  -21.7840   63.5760   24.2590 Cl  0  0  0  0  0  0  0  0  0  0  0  0
  -19.1490   66.6400   24.2920 C   0  0  0  0  0  0  0  0  0  0  0  0
  -19.7020   67.5340   25.2190 C   0  0  0  0  0  0  0  0  0  0  0  0
  -20.9050   67.2050   25.8730 C   0  0  0  0  0  0  0  0  0  0  0  0
  -17.9480   66.9960   23.6580 O   0  0  0  0  0  0  0  0  0  0  0  0
  -17.5210   66.4920   22.3970 C   0  0  0  0  0  0  0  0  0  0  0  0
  -19.0280   68.7420   25.4640 O   0  0  0  0  0  0  0  0  0  0  0  0
  -19.3650   69.6610   26.4980 C   0  0  0  0  0  0  0  0  0  0  0  0
  -24.0610   65.9800   25.4570 C   0  0  0  0  0  0  0  0  0  0  0  0
  -23.9530   66.7490   24.4640 O   0  0  0  0  0  0  0  0  0  0  0  0
  -25.3740   65.3810   25.7810 C   0  0  0  0  0  0  0  0  0  0  0  0
  -25.6560   64.5500   26.8660 C   0  0  0  0  0  0  0  0  0  0  0  0
  -26.9570   64.1830   26.8580 N   0  0  0  0  0  0  0  0  0  0  0  0
  -27.5030   64.7690   25.7800 C   0  0  0  0  0  0  0  0  0  0  0  0
  -27.4360   63.5660   27.5510 H   0  0  0  0  0  0  0  0  0  0  0  0
  -28.8290   64.6780   25.3590 C   0  0  0  0  0  0  0  0  0  0  0  0
  -26.5730   65.5100   25.0940 C   0  0  0  0  0  0  0  0  0  0  0  0
  -29.1980   65.3730   24.1940 C   0  0  0  0  0  0  0  0  0  0  0  0
  -28.2460   66.1360   23.4860 C   0  0  0  0  0  0  0  0  0  0  0  0
  -26.9150   66.2100   23.9330 C   0  0  0  0  0  0  0  0  0  0  0  0
  2  8  1  0  0  0  0
  2  1  1  0  0  0  0
  3  2  2  0  0  0  0
  4  6  2  0  0  0  0
  4  3  1  0  0  0  0
  5  3  1  0  0  0  0
  6  7  1  0  0  0  0
  7 11  1  0  0  0  0
  7  8  2  0  0  0  0
  9  6  1  0  0  0  0
 10  9  1  0  0  0  0
 11 12  1  0  0  0  0
 13 15  1  0  0  0  0
 13  1  1  0  0  0  0
 14 13  2  0  0  0  0
 15 16  2  0  0  0  0
 17 16  1  0  0  0  0
 17 19  1  0  0  0  0
 18 17  1  0  0  0  0
 20 18  1  0  0  0  0
 21 18  2  0  0  0  0
 21 15  1  0  0  0  0
 22 20  2  0  0  0  0
 23 24  2  0  0  0  0
 23 22  1  0  0  0  0
 24 21  1  0  0  0  0
M  END
>  <REMARK>
 VINA RESULT:      -8.3      3.196      3.962
  5 active torsions:
  status: ('A' for Active; 'I' for Inactive)
    1  A    between atoms: O1_2  and  C2_3 
    2  A    between atoms: C5_7  and  C6_8 
    3  A    between atoms: C6_8  and  C7_9 
    4  A    between atoms: C7_9  and  C8_11 
    5  A    between atoms: C17_21  and  O3_22 

>  <TORSDO>
F 5

$$$$
../pdbqt/decoy.vina_out.33.pdbqt
 OpenBabel06052021513D

 24 26  0  0  0  0  0  0  0  0999 V2000
  -23.1080   63.0170   26.6620 C   0  0  0  0  0  0  0  0  0  0  0  0
  -21.8180   62.8000   25.9020 C   0  0  0  0  0  0  0  0  0  0  0  0
  -20.5660   62.8560   26.5460 C   0  0  0  0  0  0  0  0  0  0  0  0
  -19.3950   62.6240   25.8180 C   0  0  0  0  0  0  0  0  0  0  0  0
  -20.4250   63.2010   28.2680 Cl  0  0  0  0  0  0  0  0  0  0  0  0
  -19.4500   62.3200   24.4460 C   0  0  0  0  0  0  0  0  0  0  0  0
  -20.6930   62.2460   23.8020 C   0  0  0  0  0  0  0  0  0  0  0  0
  -21.8720   62.4810   24.5350 C   0  0  0  0  0  0  0  0  0  0  0  0
  -18.2920   62.0830   23.6880 O   0  0  0  0  0  0  0  0  0  0  0  0
  -17.2190   63.0070   23.5420 C   0  0  0  0  0  0  0  0  0  0  0  0
  -20.7170   61.9340   22.4330 O   0  0  0  0  0  0  0  0  0  0  0  0
  -20.5650   62.8840   21.3840 C   0  0  0  0  0  0  0  0  0  0  0  0
  -23.5630   64.4560   26.6300 C   0  0  0  0  0  0  0  0  0  0  0  0
  -22.7690   65.3780   26.9570 O   0  0  0  0  0  0  0  0  0  0  0  0
  -24.9460   64.7870   26.2230 C   0  0  0  0  0  0  0  0  0  0  0  0
  -26.1170   64.3040   26.8070 C   0  0  0  0  0  0  0  0  0  0  0  0
  -27.2040   64.8110   26.1850 N   0  0  0  0  0  0  0  0  0  0  0  0
  -26.7380   65.6090   25.2110 C   0  0  0  0  0  0  0  0  0  0  0  0
  -28.2040   64.6170   26.4170 H   0  0  0  0  0  0  0  0  0  0  0  0
  -27.4910   66.3510   24.3020 C   0  0  0  0  0  0  0  0  0  0  0  0
  -25.3650   65.6240   25.1980 C   0  0  0  0  0  0  0  0  0  0  0  0
  -26.8010   67.1270   23.3540 C   0  0  0  0  0  0  0  0  0  0  0  0
  -25.3910   67.1450   23.3370 C   0  0  0  0  0  0  0  0  0  0  0  0
  -24.6550   66.3880   24.2650 C   0  0  0  0  0  0  0  0  0  0  0  0
  2  3  1  0  0  0  0
  2  1  1  0  0  0  0
  3  5  1  0  0  0  0
  4  3  2  0  0  0  0
  6  4  1  0  0  0  0
  7  6  2  0  0  0  0
  7  8  1  0  0  0  0
  8  2  2  0  0  0  0
  9  6  1  0  0  0  0
 10  9  1  0  0  0  0
 11  7  1  0  0  0  0
 12 11  1  0  0  0  0
 13  1  1  0  0  0  0
 13 14  2  0  0  0  0
 15 13  1  0  0  0  0
 15 16  2  0  0  0  0
 17 19  1  0  0  0  0
 17 16  1  0  0  0  0
 18 17  1  0  0  0  0
 20 18  2  0  0  0  0
 21 18  1  0  0  0  0
 21 15  1  0  0  0  0
 22 20  1  0  0  0  0
 23 22  2  0  0  0  0
 23 24  1  0  0  0  0
 24 21  2  0  0  0  0
M  END
>  <REMARK>
 VINA RESULT:      -8.2      1.142      1.861
  5 active torsions:
  status: ('A' for Active; 'I' for Inactive)
    1  A    between atoms: O1_2  and  C2_3 
    2  A    between atoms: C5_7  and  C6_8 
    3  A    between atoms: C6_8  and  C7_9 
    4  A    between atoms: C7_9  and  C8_11 
    5  A    between atoms: C17_21  and  O3_22 

>  <TORSDO>
F 5

$$$$
../pdbqt/decoy.vina_out.33.pdbqt
 OpenBabel06052021513D

 24 26  0  0  0  0  0  0  0  0999 V2000
  -23.1940   64.6130   24.6500 C   0  0  0  0  0  0  0  0  0  0  0  0
  -22.7850   64.0970   26.0120 C   0  0  0  0  0  0  0  0  0  0  0  0
  -21.4950   64.3280   26.5280 C   0  0  0  0  0  0  0  0  0  0  0  0
  -21.1570   63.8600   27.8020 C   0  0  0  0  0  0  0  0  0  0  0  0
  -20.2760   65.2140   25.6140 Cl  0  0  0  0  0  0  0  0  0  0  0  0
  -22.0980   63.1680   28.5860 C   0  0  0  0  0  0  0  0  0  0  0  0
  -23.3890   62.9490   28.0850 C   0  0  0  0  0  0  0  0  0  0  0  0
  -23.7280   63.4200   26.8020 C   0  0  0  0  0  0  0  0  0  0  0  0
  -21.7900   62.6850   29.8670 O   0  0  0  0  0  0  0  0  0  0  0  0
  -20.4700   62.4490   30.3450 C   0  0  0  0  0  0  0  0  0  0  0  0
  -24.3090   62.2620   28.8930 O   0  0  0  0  0  0  0  0  0  0  0  0
  -25.6050   61.8500   28.4710 C   0  0  0  0  0  0  0  0  0  0  0  0
  -23.7400   66.0190   24.7030 C   0  0  0  0  0  0  0  0  0  0  0  0
  -23.0270   66.9570   25.1500 O   0  0  0  0  0  0  0  0  0  0  0  0
  -25.1150   66.3000   24.2380 C   0  0  0  0  0  0  0  0  0  0  0  0
  -25.4720   67.0850   23.1420 C   0  0  0  0  0  0  0  0  0  0  0  0
  -26.8160   67.1290   23.0050 N   0  0  0  0  0  0  0  0  0  0  0  0
  -27.3170   66.3830   24.0020 C   0  0  0  0  0  0  0  0  0  0  0  0
  -27.3520   67.6430   22.2710 H   0  0  0  0  0  0  0  0  0  0  0  0
  -28.6630   66.1350   24.2680 C   0  0  0  0  0  0  0  0  0  0  0  0
  -26.3140   65.8570   24.7790 C   0  0  0  0  0  0  0  0  0  0  0  0
  -28.9760   65.3200   25.3710 C   0  0  0  0  0  0  0  0  0  0  0  0
  -27.9490   64.7780   26.1730 C   0  0  0  0  0  0  0  0  0  0  0  0
  -26.5990   65.0450   25.8810 C   0  0  0  0  0  0  0  0  0  0  0  0
  1 13  1  0  0  0  0
  1  2  1  0  0  0  0
  2  3  2  0  0  0  0
  2  8  1  0  0  0  0
  3  4  1  0  0  0  0
  4  6  2  0  0  0  0
  5  3  1  0  0  0  0
  6  9  1  0  0  0  0
  7  6  1  0  0  0  0
  7 11  1  0  0  0  0
  8  7  2  0  0  0  0
  9 10  1  0  0  0  0
 12 11  1  0  0  0  0
 13 14  2  0  0  0  0
 15 13  1  0  0  0  0
 15 21  1  0  0  0  0
 16 15  2  0  0  0  0
 17 16  1  0  0  0  0
 17 18  1  0  0  0  0
 18 20  2  0  0  0  0
 18 21  1  0  0  0  0
 19 17  1  0  0  0  0
 20 22  1  0  0  0  0
 21 24  2  0  0  0  0
 22 23  2  0  0  0  0
 24 23  1  0  0  0  0
M  END
>  <REMARK>
 VINA RESULT:      -8.2      2.910      3.879
  5 active torsions:
  status: ('A' for Active; 'I' for Inactive)
    1  A    between atoms: O1_2  and  C2_3 
    2  A    between atoms: C5_7  and  C6_8 
    3  A    between atoms: C6_8  and  C7_9 
    4  A    between atoms: C7_9  and  C8_11 
    5  A    between atoms: C17_21  and  O3_22 

>  <TORSDO>
F 5

$$$$
../pdbqt/decoy.vina_out.33.pdbqt
 OpenBabel06052021513D

 24 26  0  0  0  0  0  0  0  0999 V2000
  -22.8910   66.0050   25.9790 C   0  0  0  0  0  0  0  0  0  0  0  0
  -21.6980   65.7840   25.0760 C   0  0  0  0  0  0  0  0  0  0  0  0
  -20.8030   66.8280   24.7700 C   0  0  0  0  0  0  0  0  0  0  0  0
  -19.6950   66.5830   23.9530 C   0  0  0  0  0  0  0  0  0  0  0  0
  -21.0290   68.4570   25.4040 Cl  0  0  0  0  0  0  0  0  0  0  0  0
  -19.4520   65.2970   23.4400 C   0  0  0  0  0  0  0  0  0  0  0  0
  -20.3280   64.2490   23.7530 C   0  0  0  0  0  0  0  0  0  0  0  0
  -21.4450   64.4960   24.5750 C   0  0  0  0  0  0  0  0  0  0  0  0
  -18.3490   65.0190   22.6160 O   0  0  0  0  0  0  0  0  0  0  0  0
  -18.0020   65.7630   21.4530 C   0  0  0  0  0  0  0  0  0  0  0  0
  -20.0560   62.9740   23.2320 O   0  0  0  0  0  0  0  0  0  0  0  0
  -20.8010   62.3500   22.1910 C   0  0  0  0  0  0  0  0  0  0  0  0
  -24.1860   66.1070   25.2130 C   0  0  0  0  0  0  0  0  0  0  0  0
  -24.2480   66.8050   24.1650 O   0  0  0  0  0  0  0  0  0  0  0  0
  -25.3910   65.3950   25.6920 C   0  0  0  0  0  0  0  0  0  0  0  0
  -25.4780   64.5960   26.8320 C   0  0  0  0  0  0  0  0  0  0  0  0
  -26.7270   64.0990   26.9710 N   0  0  0  0  0  0  0  0  0  0  0  0
  -27.4340   64.5710   25.9310 C   0  0  0  0  0  0  0  0  0  0  0  0
  -27.0690   63.4730   27.7330 H   0  0  0  0  0  0  0  0  0  0  0  0
  -28.7770   64.3250   25.6500 C   0  0  0  0  0  0  0  0  0  0  0  0
  -26.6570   65.3660   25.1250 C   0  0  0  0  0  0  0  0  0  0  0  0
  -29.3280   64.9200   24.5010 C   0  0  0  0  0  0  0  0  0  0  0  0
  -28.5340   65.7380   23.6700 C   0  0  0  0  0  0  0  0  0  0  0  0
  -27.1820   65.9690   23.9770 C   0  0  0  0  0  0  0  0  0  0  0  0
  2  1  1  0  0  0  0
  3  2  1  0  0  0  0
  3  5  1  0  0  0  0
  4  3  2  0  0  0  0
  6  7  2  0  0  0  0
  6  4  1  0  0  0  0
  7  8  1  0  0  0  0
  8  2  2  0  0  0  0
  9  6  1  0  0  0  0
 10  9  1  0  0  0  0
 11  7  1  0  0  0  0
 12 11  1  0  0  0  0
 13 15  1  0  0  0  0
 13  1  1  0  0  0  0
 14 13  2  0  0  0  0
 15 16  2  0  0  0  0
 16 17  1  0  0  0  0
 17 19  1  0  0  0  0
 18 17  1  0  0  0  0
 20 18  1  0  0  0  0
 21 15  1  0  0  0  0
 21 18  2  0  0  0  0
 22 20  2  0  0  0  0
 23 24  2  0  0  0  0
 23 22  1  0  0  0  0
 24 21  1  0  0  0  0
M  END
>  <REMARK>
 VINA RESULT:      -8.1      2.609      2.993
  5 active torsions:
  status: ('A' for Active; 'I' for Inactive)
    1  A    between atoms: O1_2  and  C2_3 
    2  A    between atoms: C5_7  and  C6_8 
    3  A    between atoms: C6_8  and  C7_9 
    4  A    between atoms: C7_9  and  C8_11 
    5  A    between atoms: C17_21  and  O3_22 

>  <TORSDO>
F 5

$$$$
../pdbqt/decoy.vina_out.33.pdbqt
 OpenBabel06052021513D

 24 26  0  0  0  0  0  0  0  0999 V2000
  -23.3740   65.7720   26.0100 C   0  0  0  0  0  0  0  0  0  0  0  0
  -22.1640   65.3820   25.1910 C   0  0  0  0  0  0  0  0  0  0  0  0
  -21.2070   66.3370   24.7920 C   0  0  0  0  0  0  0  0  0  0  0  0
  -20.0860   65.9380   24.0580 C   0  0  0  0  0  0  0  0  0  0  0  0
  -21.3700   68.0410   25.2070 Cl  0  0  0  0  0  0  0  0  0  0  0  0
  -19.8910   64.5860   23.7200 C   0  0  0  0  0  0  0  0  0  0  0  0
  -20.8310   63.6290   24.1270 C   0  0  0  0  0  0  0  0  0  0  0  0
  -21.9600   64.0310   24.8660 C   0  0  0  0  0  0  0  0  0  0  0  0
  -18.7770   64.1550   22.9830 O   0  0  0  0  0  0  0  0  0  0  0  0
  -17.4370   64.5650   23.2320 C   0  0  0  0  0  0  0  0  0  0  0  0
  -20.6070   62.2870   23.7810 O   0  0  0  0  0  0  0  0  0  0  0  0
  -20.0290   61.3140   24.6450 C   0  0  0  0  0  0  0  0  0  0  0  0
  -24.6730   65.4640   25.3070 C   0  0  0  0  0  0  0  0  0  0  0  0
  -24.8250   65.7740   24.0950 O   0  0  0  0  0  0  0  0  0  0  0  0
  -25.7750   64.8040   26.0400 C   0  0  0  0  0  0  0  0  0  0  0  0
  -27.1280   65.1400   25.9750 C   0  0  0  0  0  0  0  0  0  0  0  0
  -27.8590   64.3320   26.7750 N   0  0  0  0  0  0  0  0  0  0  0  0
  -26.9860   63.4880   27.3490 C   0  0  0  0  0  0  0  0  0  0  0  0
  -28.8920   64.3630   26.9160 H   0  0  0  0  0  0  0  0  0  0  0  0
  -27.2780   62.4710   28.2570 C   0  0  0  0  0  0  0  0  0  0  0  0
  -25.7030   63.7400   26.9290 C   0  0  0  0  0  0  0  0  0  0  0  0
  -26.2090   61.6960   28.7420 C   0  0  0  0  0  0  0  0  0  0  0  0
  -24.8900   61.9520   28.3140 C   0  0  0  0  0  0  0  0  0  0  0  0
  -24.6240   62.9840   27.3970 C   0  0  0  0  0  0  0  0  0  0  0  0
  2  1  1  0  0  0  0
  3  2  2  0  0  0  0
  3  5  1  0  0  0  0
  4  3  1  0  0  0  0
  6  4  2  0  0  0  0
  6  7  1  0  0  0  0
  7  8  2  0  0  0  0
  8  2  1  0  0  0  0
  9 10  1  0  0  0  0
  9  6  1  0  0  0  0
 11  7  1  0  0  0  0
 11 12  1  0  0  0  0
 13  1  1  0  0  0  0
 13 15  1  0  0  0  0
 14 13  2  0  0  0  0
 15 21  1  0  0  0  0
 16 15  2  0  0  0  0
 16 17  1  0  0  0  0
 17 19  1  0  0  0  0
 17 18  1  0  0  0  0
 18 20  1  0  0  0  0
 20 22  2  0  0  0  0
 21 18  2  0  0  0  0
 21 24  1  0  0  0  0
 23 22  1  0  0  0  0
 24 23  2  0  0  0  0
M  END
>  <REMARK>
 VINA RESULT:      -8.0      2.681      3.603
  5 active torsions:
  status: ('A' for Active; 'I' for Inactive)
    1  A    between atoms: O1_2  and  C2_3 
    2  A    between atoms: C5_7  and  C6_8 
    3  A    between atoms: C6_8  and  C7_9 
    4  A    between atoms: C7_9  and  C8_11 
    5  A    between atoms: C17_21  and  O3_22 

>  <TORSDO>
F 5

$$$$
../pdbqt/decoy.vina_out.33.pdbqt
 OpenBabel06052021513D

 24 26  0  0  0  0  0  0  0  0999 V2000
  -22.5970   63.5580   24.6300 C   0  0  0  0  0  0  0  0  0  0  0  0
  -21.4030   64.4260   24.3010 C   0  0  0  0  0  0  0  0  0  0  0  0
  -20.2760   63.9050   23.6350 C   0  0  0  0  0  0  0  0  0  0  0  0
  -19.2000   64.7420   23.3220 C   0  0  0  0  0  0  0  0  0  0  0  0
  -20.1810   62.2110   23.1600 Cl  0  0  0  0  0  0  0  0  0  0  0  0
  -19.2320   66.1080   23.6550 C   0  0  0  0  0  0  0  0  0  0  0  0
  -20.3560   66.6370   24.3040 C   0  0  0  0  0  0  0  0  0  0  0  0
  -21.4400   65.7940   24.6190 C   0  0  0  0  0  0  0  0  0  0  0  0
  -18.1670   66.9730   23.3560 O   0  0  0  0  0  0  0  0  0  0  0  0
  -16.9270   66.5620   22.7910 C   0  0  0  0  0  0  0  0  0  0  0  0
  -20.3630   68.0060   24.6170 O   0  0  0  0  0  0  0  0  0  0  0  0
  -20.0980   68.5410   25.9090 C   0  0  0  0  0  0  0  0  0  0  0  0
  -23.0340   63.6940   26.0680 C   0  0  0  0  0  0  0  0  0  0  0  0
  -22.1900   63.5850   26.9980 O   0  0  0  0  0  0  0  0  0  0  0  0
  -24.4540   63.9470   26.3910 C   0  0  0  0  0  0  0  0  0  0  0  0
  -25.2420   64.9850   25.8930 C   0  0  0  0  0  0  0  0  0  0  0  0
  -26.4940   64.9180   26.3990 N   0  0  0  0  0  0  0  0  0  0  0  0
  -26.5100   63.8500   27.2130 C   0  0  0  0  0  0  0  0  0  0  0  0
  -27.2850   65.5680   26.1950 H   0  0  0  0  0  0  0  0  0  0  0  0
  -27.5900   63.3830   27.9610 C   0  0  0  0  0  0  0  0  0  0  0  0
  -25.2860   63.2280   27.2390 C   0  0  0  0  0  0  0  0  0  0  0  0
  -27.3940   62.2400   28.7560 C   0  0  0  0  0  0  0  0  0  0  0  0
  -26.1380   61.5980   28.7860 C   0  0  0  0  0  0  0  0  0  0  0  0
  -25.0650   62.0910   28.0220 C   0  0  0  0  0  0  0  0  0  0  0  0
  1 13  1  0  0  0  0
  2  8  2  0  0  0  0
  2  1  1  0  0  0  0
  3  2  1  0  0  0  0
  4  3  2  0  0  0  0
  4  6  1  0  0  0  0
  5  3  1  0  0  0  0
  6  7  2  0  0  0  0
  7 11  1  0  0  0  0
  7  8  1  0  0  0  0
  9  6  1  0  0  0  0
 10  9  1  0  0  0  0
 11 12  1  0  0  0  0
 13 15  1  0  0  0  0
 13 14  2  0  0  0  0
 15 21  1  0  0  0  0
 16 15  2  0  0  0  0
 16 17  1  0  0  0  0
 17 18  1  0  0  0  0
 18 21  2  0  0  0  0
 18 20  1  0  0  0  0
 19 17  1  0  0  0  0
 20 22  2  0  0  0  0
 21 24  1  0  0  0  0
 22 23  1  0  0  0  0
 24 23  2  0  0  0  0
M  END
>  <REMARK>
 VINA RESULT:      -7.8      3.239      4.114
  5 active torsions:
  status: ('A' for Active; 'I' for Inactive)
    1  A    between atoms: O1_2  and  C2_3 
    2  A    between atoms: C5_7  and  C6_8 
    3  A    between atoms: C6_8  and  C7_9 
    4  A    between atoms: C7_9  and  C8_11 
    5  A    between atoms: C17_21  and  O3_22 

>  <TORSDO>
F 5

$$$$
../pdbqt/decoy.vina_out.33.pdbqt
 OpenBabel06052021513D

 24 26  0  0  0  0  0  0  0  0999 V2000
  -23.3810   66.5190   24.5820 C   0  0  0  0  0  0  0  0  0  0  0  0
  -24.6390   65.8700   25.1150 C   0  0  0  0  0  0  0  0  0  0  0  0
  -25.9140   66.2470   24.6510 C   0  0  0  0  0  0  0  0  0  0  0  0
  -27.0550   65.6080   25.1460 C   0  0  0  0  0  0  0  0  0  0  0  0
  -26.1240   67.5060   23.4370 Cl  0  0  0  0  0  0  0  0  0  0  0  0
  -26.9460   64.5790   26.0980 C   0  0  0  0  0  0  0  0  0  0  0  0
  -25.6790   64.1870   26.5530 C   0  0  0  0  0  0  0  0  0  0  0  0
  -24.5310   64.8310   26.0550 C   0  0  0  0  0  0  0  0  0  0  0  0
  -28.0730   63.9190   26.6150 O   0  0  0  0  0  0  0  0  0  0  0  0
  -28.8760   64.4090   27.6830 C   0  0  0  0  0  0  0  0  0  0  0  0
  -25.6010   63.1520   27.4990 O   0  0  0  0  0  0  0  0  0  0  0  0
  -24.4310   62.3850   27.7630 C   0  0  0  0  0  0  0  0  0  0  0  0
  -22.1560   66.1580   25.3860 C   0  0  0  0  0  0  0  0  0  0  0  0
  -22.0730   66.4960   26.5980 O   0  0  0  0  0  0  0  0  0  0  0  0
  -21.0460   65.4130   24.7540 C   0  0  0  0  0  0  0  0  0  0  0  0
  -19.9770   65.9650   24.0490 C   0  0  0  0  0  0  0  0  0  0  0  0
  -19.1460   64.9960   23.6060 N   0  0  0  0  0  0  0  0  0  0  0  0
  -19.6770   63.8330   24.0190 C   0  0  0  0  0  0  0  0  0  0  0  0
  -18.2710   65.1280   23.0520 H   0  0  0  0  0  0  0  0  0  0  0  0
  -19.1680   62.5540   23.7970 C   0  0  0  0  0  0  0  0  0  0  0  0
  -20.8370   64.0410   24.7240 C   0  0  0  0  0  0  0  0  0  0  0  0
  -19.8840   61.4620   24.3200 C   0  0  0  0  0  0  0  0  0  0  0  0
  -21.0760   61.6710   25.0440 C   0  0  0  0  0  0  0  0  0  0  0  0
  -21.5670   62.9720   25.2530 C   0  0  0  0  0  0  0  0  0  0  0  0
  1  2  1  0  0  0  0
  1 13  1  0  0  0  0
  2  8  1  0  0  0  0
  3  2  2  0  0  0  0
  3  4  1  0  0  0  0
  4  6  2  0  0  0  0
  5  3  1  0  0  0  0
  6  7  1  0  0  0  0
  6  9  1  0  0  0  0
  7 11  1  0  0  0  0
  8  7  2  0  0  0  0
  9 10  1  0  0  0  0
 11 12  1  0  0  0  0
 13 14  2  0  0  0  0
 15 13  1  0  0  0  0
 16 15  2  0  0  0  0
 17 18  1  0  0  0  0
 17 16  1  0  0  0  0
 18 21  1  0  0  0  0
 19 17  1  0  0  0  0
 20 18  2  0  0  0  0
 20 22  1  0  0  0  0
 21 15  1  0  0  0  0
 21 24  2  0  0  0  0
 22 23  2  0  0  0  0
 23 24  1  0  0  0  0
M  END
>  <REMARK>
 VINA RESULT:      -7.6      3.159      6.986
  5 active torsions:
  status: ('A' for Active; 'I' for Inactive)
    1  A    between atoms: O1_2  and  C2_3 
    2  A    between atoms: C5_7  and  C6_8 
    3  A    between atoms: C6_8  and  C7_9 
    4  A    between atoms: C7_9  and  C8_11 
    5  A    between atoms: C17_21  and  O3_22 

>  <TORSDO>
F 5

$$$$
