../pdbqt/decoy.vina_out.73.pdbqt
 OpenBabel06052021513D

 13 14  0  0  0  0  0  0  0  0999 V2000
  -24.3930   65.9240   25.1580 C   0  0  0  0  0  0  0  0  0  0  0  0
  -24.2200   65.2060   26.3630 C   0  0  0  0  0  0  0  0  0  0  0  0
  -25.3190   64.5840   26.9840 C   0  0  0  0  0  0  0  0  0  0  0  0
  -26.6000   64.6670   26.4160 C   0  0  0  0  0  0  0  0  0  0  0  0
  -28.0830   63.8170   27.2710 Br  0  0  0  0  0  0  0  0  0  0  0  0
  -26.7580   65.3820   25.2220 C   0  0  0  0  0  0  0  0  0  0  0  0
  -25.6820   65.9890   24.6180 C   0  0  0  0  0  0  0  0  0  0  0  0
  -26.1380   66.6460   23.4150 C   0  0  0  0  0  0  0  0  0  0  0  0
  -25.4030   67.2960   22.6260 O   0  0  0  0  0  0  0  0  0  0  0  0
  -27.6050   66.4480   23.2330 C   0  0  0  0  0  0  0  0  0  0  0  0
  -28.0260   65.5950   24.4530 C   0  0  0  0  0  0  0  0  0  0  0  0
  -23.3340   66.5640   24.4960 O   0  0  0  0  0  0  0  0  0  0  0  0
  -22.1760   67.0770   25.1470 C   0  0  0  0  0  0  0  0  0  0  0  0
  1  2  1  0  0  0  0
  2  3  2  0  0  0  0
  4  3  1  0  0  0  0
  4  5  1  0  0  0  0
  6  4  2  0  0  0  0
  7  1  2  0  0  0  0
  7  6  1  0  0  0  0
  8  7  1  0  0  0  0
  9  8  2  0  0  0  0
 10  8  1  0  0  0  0
 10 11  2  0  0  0  0
 11  6  1  0  0  0  0
 12 13  1  0  0  0  0
 12  1  1  0  0  0  0
M  END
>  <MODEL>
1

>  <REMARK>
 VINA RESULT:      -7.2      0.000      0.000
  1 active torsions:
  status: ('A' for Active; 'I' for Inactive)
    1  A    between atoms: O1_2  and  C2_3 

>  <TORSDO>
F 1

$$$$
../pdbqt/decoy.vina_out.73.pdbqt
 OpenBabel06052021513D

 13 14  0  0  0  0  0  0  0  0999 V2000
  -25.7930   65.9360   24.4740 C   0  0  0  0  0  0  0  0  0  0  0  0
  -24.8240   65.6350   25.4590 C   0  0  0  0  0  0  0  0  0  0  0  0
  -25.1690   64.8620   26.5830 C   0  0  0  0  0  0  0  0  0  0  0  0
  -26.4770   64.3780   26.7410 C   0  0  0  0  0  0  0  0  0  0  0  0
  -26.9300   63.3280   28.2740 Br  0  0  0  0  0  0  0  0  0  0  0  0
  -27.4270   64.6830   25.7590 C   0  0  0  0  0  0  0  0  0  0  0  0
  -27.0870   65.4390   24.6630 C   0  0  0  0  0  0  0  0  0  0  0  0
  -28.2550   65.5920   23.8260 C   0  0  0  0  0  0  0  0  0  0  0  0
  -28.2870   66.2300   22.7410 O   0  0  0  0  0  0  0  0  0  0  0  0
  -29.4240   64.8860   24.4250 C   0  0  0  0  0  0  0  0  0  0  0  0
  -28.8680   64.2720   25.7310 C   0  0  0  0  0  0  0  0  0  0  0  0
  -25.5050   66.7020   23.3350 O   0  0  0  0  0  0  0  0  0  0  0  0
  -25.7590   68.0990   23.2250 C   0  0  0  0  0  0  0  0  0  0  0  0
  1  7  2  0  0  0  0
  1  2  1  0  0  0  0
  2  3  2  0  0  0  0
  3  4  1  0  0  0  0
  4  5  1  0  0  0  0
  6  4  2  0  0  0  0
  7  6  1  0  0  0  0
  8 10  1  0  0  0  0
  8  7  1  0  0  0  0
  9  8  2  0  0  0  0
 10 11  2  0  0  0  0
 11  6  1  0  0  0  0
 12  1  1  0  0  0  0
 13 12  1  0  0  0  0
M  END
>  <REMARK>
 VINA RESULT:      -6.9      1.380      2.157
  1 active torsions:
  status: ('A' for Active; 'I' for Inactive)
    1  A    between atoms: O1_2  and  C2_3 

>  <TORSDO>
F 1

$$$$
../pdbqt/decoy.vina_out.73.pdbqt
 OpenBabel06052021513D

 13 14  0  0  0  0  0  0  0  0999 V2000
  -27.7250   65.0350   25.9920 C   0  0  0  0  0  0  0  0  0  0  0  0
  -28.3890   64.1410   26.8630 C   0  0  0  0  0  0  0  0  0  0  0  0
  -27.6540   63.2250   27.6390 C   0  0  0  0  0  0  0  0  0  0  0  0
  -26.2530   63.1870   27.5590 C   0  0  0  0  0  0  0  0  0  0  0  0
  -25.2690   61.9370   28.6200 Br  0  0  0  0  0  0  0  0  0  0  0  0
  -25.6070   64.0770   26.6930 C   0  0  0  0  0  0  0  0  0  0  0  0
  -26.3280   64.9700   25.9370 C   0  0  0  0  0  0  0  0  0  0  0  0
  -25.4080   65.7540   25.1450 C   0  0  0  0  0  0  0  0  0  0  0  0
  -25.7420   66.6640   24.3420 O   0  0  0  0  0  0  0  0  0  0  0  0
  -24.0010   65.3370   25.4110 C   0  0  0  0  0  0  0  0  0  0  0  0
  -24.1320   64.2040   26.4560 C   0  0  0  0  0  0  0  0  0  0  0  0
  -28.4060   65.9670   25.1960 O   0  0  0  0  0  0  0  0  0  0  0  0
  -29.2000   65.6250   24.0640 C   0  0  0  0  0  0  0  0  0  0  0  0
  1  2  1  0  0  0  0
  2  3  2  0  0  0  0
  4  3  1  0  0  0  0
  4  5  1  0  0  0  0
  6  4  2  0  0  0  0
  7  1  2  0  0  0  0
  7  6  1  0  0  0  0
  8 10  1  0  0  0  0
  8  7  1  0  0  0  0
  9  8  2  0  0  0  0
 10 11  2  0  0  0  0
 11  6  1  0  0  0  0
 12  1  1  0  0  0  0
 13 12  1  0  0  0  0
M  END
>  <REMARK>
 VINA RESULT:      -6.9      1.992      3.837
  1 active torsions:
  status: ('A' for Active; 'I' for Inactive)
    1  A    between atoms: O1_2  and  C2_3 

>  <TORSDO>
F 1

$$$$
../pdbqt/decoy.vina_out.73.pdbqt
 OpenBabel06052021513D

 13 14  0  0  0  0  0  0  0  0999 V2000
  -27.2730   65.1130   25.6520 C   0  0  0  0  0  0  0  0  0  0  0  0
  -26.5820   64.4530   26.6950 C   0  0  0  0  0  0  0  0  0  0  0  0
  -25.1900   64.6040   26.8330 C   0  0  0  0  0  0  0  0  0  0  0  0
  -24.4690   65.4110   25.9390 C   0  0  0  0  0  0  0  0  0  0  0  0
  -22.5770   65.6060   26.1390 Br  0  0  0  0  0  0  0  0  0  0  0  0
  -25.1640   66.0590   24.9110 C   0  0  0  0  0  0  0  0  0  0  0  0
  -26.5240   65.9090   24.7790 C   0  0  0  0  0  0  0  0  0  0  0  0
  -26.9660   66.6840   23.6430 C   0  0  0  0  0  0  0  0  0  0  0  0
  -28.1580   66.7660   23.2460 O   0  0  0  0  0  0  0  0  0  0  0  0
  -25.8130   67.3790   23.0020 C   0  0  0  0  0  0  0  0  0  0  0  0
  -24.5940   66.9580   23.8560 C   0  0  0  0  0  0  0  0  0  0  0  0
  -28.6580   64.9980   25.4680 O   0  0  0  0  0  0  0  0  0  0  0  0
  -29.2790   63.9970   24.6670 C   0  0  0  0  0  0  0  0  0  0  0  0
  1  2  2  0  0  0  0
  2  3  1  0  0  0  0
  4  5  1  0  0  0  0
  4  3  2  0  0  0  0
  6  4  1  0  0  0  0
  7  6  2  0  0  0  0
  7  1  1  0  0  0  0
  8  7  1  0  0  0  0
  9  8  2  0  0  0  0
 10  8  1  0  0  0  0
 10 11  2  0  0  0  0
 11  6  1  0  0  0  0
 12  1  1  0  0  0  0
 13 12  1  0  0  0  0
M  END
>  <REMARK>
 VINA RESULT:      -6.9      2.497      3.705
  1 active torsions:
  status: ('A' for Active; 'I' for Inactive)
    1  A    between atoms: O1_2  and  C2_3 

>  <TORSDO>
F 1

$$$$
../pdbqt/decoy.vina_out.73.pdbqt
 OpenBabel06052021513D

 13 14  0  0  0  0  0  0  0  0999 V2000
  -26.1920   64.0060   27.2240 C   0  0  0  0  0  0  0  0  0  0  0  0
  -27.5900   63.8070   27.1610 C   0  0  0  0  0  0  0  0  0  0  0  0
  -28.3580   64.4540   26.1740 C   0  0  0  0  0  0  0  0  0  0  0  0
  -27.7460   65.3040   25.2400 C   0  0  0  0  0  0  0  0  0  0  0  0
  -28.8020   66.1770   23.9060 Br  0  0  0  0  0  0  0  0  0  0  0  0
  -26.3600   65.4940   25.3130 C   0  0  0  0  0  0  0  0  0  0  0  0
  -25.6140   64.8610   26.2780 C   0  0  0  0  0  0  0  0  0  0  0  0
  -24.2300   65.2380   26.1130 C   0  0  0  0  0  0  0  0  0  0  0  0
  -23.2810   64.8340   26.8350 O   0  0  0  0  0  0  0  0  0  0  0  0
  -24.0760   66.1780   24.9650 C   0  0  0  0  0  0  0  0  0  0  0  0
  -25.5140   66.3520   24.4230 C   0  0  0  0  0  0  0  0  0  0  0  0
  -25.3800   63.3880   28.1850 O   0  0  0  0  0  0  0  0  0  0  0  0
  -25.0570   62.0010   28.1890 C   0  0  0  0  0  0  0  0  0  0  0  0
  1 12  1  0  0  0  0
  2  1  1  0  0  0  0
  3  2  2  0  0  0  0
  4  6  2  0  0  0  0
  4  3  1  0  0  0  0
  5  4  1  0  0  0  0
  6  7  1  0  0  0  0
  7  1  2  0  0  0  0
  8  7  1  0  0  0  0
  8  9  2  0  0  0  0
 10  8  1  0  0  0  0
 11 10  2  0  0  0  0
 11  6  1  0  0  0  0
 12 13  1  0  0  0  0
M  END
>  <REMARK>
 VINA RESULT:      -6.8      2.331      3.869
  1 active torsions:
  status: ('A' for Active; 'I' for Inactive)
    1  A    between atoms: O1_2  and  C2_3 

>  <TORSDO>
F 1

$$$$
../pdbqt/decoy.vina_out.73.pdbqt
 OpenBabel06052021513D

 13 14  0  0  0  0  0  0  0  0999 V2000
  -24.2430   66.2120   24.6810 C   0  0  0  0  0  0  0  0  0  0  0  0
  -24.8790   66.9410   23.6500 C   0  0  0  0  0  0  0  0  0  0  0  0
  -26.2800   66.9120   23.5180 C   0  0  0  0  0  0  0  0  0  0  0  0
  -27.0640   66.1620   24.4080 C   0  0  0  0  0  0  0  0  0  0  0  0
  -28.9660   66.1340   24.2170 Br  0  0  0  0  0  0  0  0  0  0  0  0
  -26.4220   65.4450   25.4260 C   0  0  0  0  0  0  0  0  0  0  0  0
  -25.0540   65.4740   25.5510 C   0  0  0  0  0  0  0  0  0  0  0  0
  -24.6740   64.6510   26.6750 C   0  0  0  0  0  0  0  0  0  0  0  0
  -23.4920   64.4630   27.0650 O   0  0  0  0  0  0  0  0  0  0  0  0
  -25.8800   64.0520   27.3160 C   0  0  0  0  0  0  0  0  0  0  0  0
  -27.0630   64.5860   26.4740 C   0  0  0  0  0  0  0  0  0  0  0  0
  -22.8520   66.2040   24.8580 O   0  0  0  0  0  0  0  0  0  0  0  0
  -22.1040   67.2980   25.3790 C   0  0  0  0  0  0  0  0  0  0  0  0
  1 12  1  0  0  0  0
  1  7  2  0  0  0  0
  2  1  1  0  0  0  0
  3  2  2  0  0  0  0
  3  4  1  0  0  0  0
  4  6  2  0  0  0  0
  5  4  1  0  0  0  0
  6  7  1  0  0  0  0
  6 11  1  0  0  0  0
  7  8  1  0  0  0  0
  8  9  2  0  0  0  0
  8 10  1  0  0  0  0
 11 10  2  0  0  0  0
 12 13  1  0  0  0  0
M  END
>  <REMARK>
 VINA RESULT:      -6.8      1.646      3.202
  1 active torsions:
  status: ('A' for Active; 'I' for Inactive)
    1  A    between atoms: O1_2  and  C2_3 

>  <TORSDO>
F 1

$$$$
../pdbqt/decoy.vina_out.73.pdbqt
 OpenBabel06052021513D

 13 14  0  0  0  0  0  0  0  0999 V2000
  -25.3050   64.3620   27.0450 C   0  0  0  0  0  0  0  0  0  0  0  0
  -24.1910   65.0470   26.5070 C   0  0  0  0  0  0  0  0  0  0  0  0
  -24.3440   65.8830   25.3850 C   0  0  0  0  0  0  0  0  0  0  0  0
  -25.6020   66.0480   24.7860 C   0  0  0  0  0  0  0  0  0  0  0  0
  -25.7940   67.1870   23.2620 Br  0  0  0  0  0  0  0  0  0  0  0  0
  -26.6980   65.3640   25.3280 C   0  0  0  0  0  0  0  0  0  0  0  0
  -26.5450   64.5480   26.4230 C   0  0  0  0  0  0  0  0  0  0  0  0
  -27.8300   63.9800   26.7590 C   0  0  0  0  0  0  0  0  0  0  0  0
  -28.0400   63.1870   27.7140 O   0  0  0  0  0  0  0  0  0  0  0  0
  -28.8790   64.4630   25.8160 C   0  0  0  0  0  0  0  0  0  0  0  0
  -28.1170   65.3980   24.8470 C   0  0  0  0  0  0  0  0  0  0  0  0
  -25.2110   63.5170   28.1600 O   0  0  0  0  0  0  0  0  0  0  0  0
  -24.6570   62.2050   28.1260 C   0  0  0  0  0  0  0  0  0  0  0  0
  1 12  1  0  0  0  0
  2  1  1  0  0  0  0
  3  2  2  0  0  0  0
  4  6  2  0  0  0  0
  4  3  1  0  0  0  0
  5  4  1  0  0  0  0
  6  7  1  0  0  0  0
  7  8  1  0  0  0  0
  7  1  2  0  0  0  0
  8  9  2  0  0  0  0
 10  8  1  0  0  0  0
 11  6  1  0  0  0  0
 11 10  2  0  0  0  0
 13 12  1  0  0  0  0
M  END
>  <REMARK>
 VINA RESULT:      -6.7      2.999      3.968
  1 active torsions:
  status: ('A' for Active; 'I' for Inactive)
    1  A    between atoms: O1_2  and  C2_3 

>  <TORSDO>
F 1

$$$$
../pdbqt/decoy.vina_out.73.pdbqt
 OpenBabel06052021513D

 13 14  0  0  0  0  0  0  0  0999 V2000
  -26.5430   65.8820   24.4560 C   0  0  0  0  0  0  0  0  0  0  0  0
  -25.4990   66.6060   23.8360 C   0  0  0  0  0  0  0  0  0  0  0  0
  -24.2070   66.6090   24.3930 C   0  0  0  0  0  0  0  0  0  0  0  0
  -23.9370   65.8930   25.5700 C   0  0  0  0  0  0  0  0  0  0  0  0
  -22.1760   65.9070   26.3140 Br  0  0  0  0  0  0  0  0  0  0  0  0
  -24.9790   65.1800   26.1750 C   0  0  0  0  0  0  0  0  0  0  0  0
  -26.2400   65.1790   25.6280 C   0  0  0  0  0  0  0  0  0  0  0  0
  -27.1020   64.3680   26.4560 C   0  0  0  0  0  0  0  0  0  0  0  0
  -28.3240   64.1580   26.2360 O   0  0  0  0  0  0  0  0  0  0  0  0
  -26.3440   63.8100   27.6120 C   0  0  0  0  0  0  0  0  0  0  0  0
  -24.9090   64.3570   27.4250 C   0  0  0  0  0  0  0  0  0  0  0  0
  -27.8490   65.8440   23.9460 O   0  0  0  0  0  0  0  0  0  0  0  0
  -28.7990   66.8930   24.0990 C   0  0  0  0  0  0  0  0  0  0  0  0
  1  7  2  0  0  0  0
  2  3  2  0  0  0  0
  2  1  1  0  0  0  0
  3  4  1  0  0  0  0
  4  6  2  0  0  0  0
  4  5  1  0  0  0  0
  6 11  1  0  0  0  0
  7  6  1  0  0  0  0
  7  8  1  0  0  0  0
  8 10  1  0  0  0  0
  9  8  2  0  0  0  0
 11 10  2  0  0  0  0
 12 13  1  0  0  0  0
 12  1  1  0  0  0  0
M  END
>  <REMARK>
 VINA RESULT:      -6.6      2.639      4.328
  1 active torsions:
  status: ('A' for Active; 'I' for Inactive)
    1  A    between atoms: O1_2  and  C2_3 

>  <TORSDO>
F 1

$$$$
../pdbqt/decoy.vina_out.73.pdbqt
 OpenBabel06052021513D

 13 14  0  0  0  0  0  0  0  0999 V2000
  -24.6520   64.7690   26.0620 C   0  0  0  0  0  0  0  0  0  0  0  0
  -24.5620   65.7260   25.0260 C   0  0  0  0  0  0  0  0  0  0  0  0
  -25.7280   66.2650   24.4510 C   0  0  0  0  0  0  0  0  0  0  0  0
  -26.9950   65.8600   24.8990 C   0  0  0  0  0  0  0  0  0  0  0  0
  -28.5710   66.6010   24.1090 Br  0  0  0  0  0  0  0  0  0  0  0  0
  -27.0720   64.9110   25.9260 C   0  0  0  0  0  0  0  0  0  0  0  0
  -25.9300   64.3870   26.4850 C   0  0  0  0  0  0  0  0  0  0  0  0
  -26.3090   63.4420   27.5090 C   0  0  0  0  0  0  0  0  0  0  0  0
  -25.5030   62.7830   28.2170 O   0  0  0  0  0  0  0  0  0  0  0  0
  -27.7940   63.3530   27.6160 C   0  0  0  0  0  0  0  0  0  0  0  0
  -28.3120   64.3440   26.5480 C   0  0  0  0  0  0  0  0  0  0  0  0
  -23.5240   64.1990   26.6700 O   0  0  0  0  0  0  0  0  0  0  0  0
  -22.7120   63.1950   26.0700 C   0  0  0  0  0  0  0  0  0  0  0  0
  1  7  1  0  0  0  0
  1 12  1  0  0  0  0
  2  1  2  0  0  0  0
  3  4  2  0  0  0  0
  3  2  1  0  0  0  0
  4  6  1  0  0  0  0
  5  4  1  0  0  0  0
  6  7  2  0  0  0  0
  6 11  1  0  0  0  0
  7  8  1  0  0  0  0
  8 10  1  0  0  0  0
  8  9  2  0  0  0  0
 11 10  2  0  0  0  0
 13 12  1  0  0  0  0
M  END
>  <REMARK>
 VINA RESULT:      -6.5      2.479      3.749
  1 active torsions:
  status: ('A' for Active; 'I' for Inactive)
    1  A    between atoms: O1_2  and  C2_3 

>  <TORSDO>
F 1

$$$$
