../pdbqt/decoy.vina_out.44.pdbqt
 OpenBabel06052021513D

 26 28  0  0  1  0  0  0  0  0999 V2000
  -20.4480   61.4430   24.8830 C   0  0  0  0  0  0  0  0  0  0  0  0
  -20.5060   62.9370   24.7210 C   0  0  0  0  0  0  0  0  0  0  0  0
  -19.7130   63.5780   23.7700 C   0  0  0  0  0  0  0  0  0  0  0  0
  -19.7740   64.9330   23.6060 N   0  0  0  0  0  0  0  0  0  0  0  0
  -20.5860   65.6840   24.4200 C   0  0  0  0  0  0  0  0  0  0  0  0
  -20.6030   66.9410   24.2960 O   0  0  0  0  0  0  0  0  0  0  0  0
  -21.3790   65.0800   25.3680 N   0  0  0  0  0  0  0  0  0  0  0  0
  -21.3500   63.7180   25.5170 C   0  0  0  0  0  0  0  0  0  0  0  0
  -22.0840   63.1540   26.3770 O   0  0  0  0  0  0  0  0  0  0  0  0
  -18.9020   65.5800   22.6030 C   0  0  1  0  0  0  0  0  0  0  0  0
  -17.6700   66.1830   23.2620 C   0  0  0  0  0  0  0  0  0  0  0  0
  -16.6230   66.0200   22.2030 C   0  0  2  0  0  0  0  0  0  0  0  0
  -17.0980   64.7740   21.4590 C   0  0  1  0  0  0  0  0  0  0  0  0
  -18.4960   64.6540   21.6150 O   0  0  0  0  0  0  0  0  0  0  0  0
  -15.3580   65.8280   22.7810 O   0  0  0  0  0  0  0  0  0  0  0  0
  -14.7300   65.6640   22.0310 H   0  0  0  0  0  0  0  0  0  0  0  0
  -16.7410   64.8300   19.9680 C   0  0  0  0  0  0  0  0  0  0  0  0
  -15.6270   64.0210   19.7020 O   0  0  0  0  0  0  0  0  0  0  0  0
  -15.6030   63.8810   18.7200 H   0  0  0  0  0  0  0  0  0  0  0  0
  -22.2870   65.8840   26.2140 C   0  0  0  0  0  0  0  0  0  0  0  0
  -23.6780   65.8940   25.6330 C   0  0  0  0  0  0  0  0  0  0  0  0
  -24.7230   65.2170   26.2850 C   0  0  0  0  0  0  0  0  0  0  0  0
  -26.0150   65.2320   25.7500 C   0  0  0  0  0  0  0  0  0  0  0  0
  -26.2730   65.9200   24.5620 C   0  0  0  0  0  0  0  0  0  0  0  0
  -25.2400   66.5940   23.9060 C   0  0  0  0  0  0  0  0  0  0  0  0
  -23.9470   66.5810   24.4360 C   0  0  0  0  0  0  0  0  0  0  0  0
  2  1  1  0  0  0  0
  2  8  1  0  0  0  0
  3  2  2  0  0  0  0
  4  3  1  0  0  0  0
  4  5  1  0  0  0  0
  5  7  1  0  0  0  0
  6  5  2  0  0  0  0
  7  8  1  0  0  0  0
  7 20  1  0  0  0  0
  8  9  2  0  0  0  0
 10 11  1  1  0  0  0
 10  4  1  0  0  0  0
 12 15  1  1  0  0  0
 12 11  1  0  0  0  0
 13 17  1  6  0  0  0
 13 14  1  0  0  0  0
 13 12  1  0  0  0  0
 14 10  1  0  0  0  0
 16 15  1  0  0  0  0
 18 17  1  0  0  0  0
 19 18  1  0  0  0  0
 21 20  1  0  0  0  0
 21 22  2  0  0  0  0
 23 22  1  0  0  0  0
 24 23  2  0  0  0  0
 25 26  2  0  0  0  0
 25 24  1  0  0  0  0
 26 21  1  0  0  0  0
M  END
>  <MODEL>
1

>  <REMARK>
 VINA RESULT:      -7.9      0.000      0.000
  6 active torsions:
  status: ('A' for Active; 'I' for Inactive)
    1  A    between atoms: N1_4  and  C4_5 
    2  A    between atoms: C6_7  and  O1_8 
    3  A    between atoms: C7_9  and  C8_10 
    4  A    between atoms: C8_10  and  O2_11 
    5  A    between atoms: N2_15  and  C10_16 
    6  A    between atoms: C10_16  and  C11_17 

>  <TORSDO>
F 6

$$$$
../pdbqt/decoy.vina_out.44.pdbqt
 OpenBabel06052021513D

 26 28  0  0  1  0  0  0  0  0999 V2000
  -21.8630   62.8570   23.2980 C   0  0  0  0  0  0  0  0  0  0  0  0
  -22.6660   63.4750   24.4100 C   0  0  0  0  0  0  0  0  0  0  0  0
  -23.6510   64.4210   24.1310 C   0  0  0  0  0  0  0  0  0  0  0  0
  -24.3950   64.9740   25.1350 N   0  0  0  0  0  0  0  0  0  0  0  0
  -24.1390   64.6360   26.4410 C   0  0  0  0  0  0  0  0  0  0  0  0
  -24.7970   65.1860   27.3680 O   0  0  0  0  0  0  0  0  0  0  0  0
  -23.1720   63.7070   26.7470 N   0  0  0  0  0  0  0  0  0  0  0  0
  -22.4430   63.1210   25.7440 C   0  0  0  0  0  0  0  0  0  0  0  0
  -21.5620   62.2580   26.0160 O   0  0  0  0  0  0  0  0  0  0  0  0
  -25.4170   65.9900   24.8030 C   0  0  1  0  0  0  0  0  0  0  0  0
  -25.1720   66.5740   23.4180 C   0  0  0  0  0  0  0  0  0  0  0  0
  -26.5620   66.8600   22.9370 C   0  0  2  0  0  0  0  0  0  0  0  0
  -27.3880   65.8010   23.6660 C   0  0  1  0  0  0  0  0  0  0  0  0
  -26.7150   65.4340   24.8520 O   0  0  0  0  0  0  0  0  0  0  0  0
  -26.6440   66.7140   21.5440 O   0  0  0  0  0  0  0  0  0  0  0  0
  -27.3850   67.3010   21.2440 H   0  0  0  0  0  0  0  0  0  0  0  0
  -28.7970   66.3080   23.9980 C   0  0  0  0  0  0  0  0  0  0  0  0
  -28.7790   67.6920   24.2170 O   0  0  0  0  0  0  0  0  0  0  0  0
  -29.1210   67.8410   25.1370 H   0  0  0  0  0  0  0  0  0  0  0  0
  -22.9270   63.3090   28.1500 C   0  0  0  0  0  0  0  0  0  0  0  0
  -24.2190   62.9220   28.8230 C   0  0  0  0  0  0  0  0  0  0  0  0
  -24.9860   61.8560   28.3230 C   0  0  0  0  0  0  0  0  0  0  0  0
  -26.1820   61.4920   28.9510 C   0  0  0  0  0  0  0  0  0  0  0  0
  -26.6200   62.1890   30.0800 C   0  0  0  0  0  0  0  0  0  0  0  0
  -25.8650   63.2510   30.5820 C   0  0  0  0  0  0  0  0  0  0  0  0
  -24.6700   63.6190   29.9580 C   0  0  0  0  0  0  0  0  0  0  0  0
  1  2  1  0  0  0  0
  2  8  1  0  0  0  0
  3  2  2  0  0  0  0
  3  4  1  0  0  0  0
  4  5  1  0  0  0  0
  5  7  1  0  0  0  0
  5  6  2  0  0  0  0
  7 20  1  0  0  0  0
  8  9  2  0  0  0  0
  8  7  1  0  0  0  0
 10 11  1  6  0  0  0
 10 14  1  0  0  0  0
 10  4  1  0  0  0  0
 12 15  1  6  0  0  0
 12 11  1  0  0  0  0
 12 13  1  0  0  0  0
 13 17  1  1  0  0  0
 13 14  1  0  0  0  0
 16 15  1  0  0  0  0
 17 18  1  0  0  0  0
 18 19  1  0  0  0  0
 20 21  1  0  0  0  0
 21 26  1  0  0  0  0
 22 21  2  0  0  0  0
 22 23  1  0  0  0  0
 23 24  2  0  0  0  0
 24 25  1  0  0  0  0
 26 25  2  0  0  0  0
M  END
>  <REMARK>
 VINA RESULT:      -7.9      4.215      7.113
  6 active torsions:
  status: ('A' for Active; 'I' for Inactive)
    1  A    between atoms: N1_4  and  C4_5 
    2  A    between atoms: C6_7  and  O1_8 
    3  A    between atoms: C7_9  and  C8_10 
    4  A    between atoms: C8_10  and  O2_11 
    5  A    between atoms: N2_15  and  C10_16 
    6  A    between atoms: C10_16  and  C11_17 

>  <TORSDO>
F 6

$$$$
../pdbqt/decoy.vina_out.44.pdbqt
 OpenBabel06052021513D

 26 28  0  0  1  0  0  0  0  0999 V2000
  -24.2910   62.2500   27.7870 C   0  0  0  0  0  0  0  0  0  0  0  0
  -23.9130   63.3880   26.8790 C   0  0  0  0  0  0  0  0  0  0  0  0
  -24.8860   64.2600   26.3930 C   0  0  0  0  0  0  0  0  0  0  0  0
  -24.5480   65.3050   25.5810 N   0  0  0  0  0  0  0  0  0  0  0  0
  -23.2410   65.4740   25.1940 C   0  0  0  0  0  0  0  0  0  0  0  0
  -22.9410   66.4130   24.4050 O   0  0  0  0  0  0  0  0  0  0  0  0
  -22.2590   64.6290   25.6550 N   0  0  0  0  0  0  0  0  0  0  0  0
  -22.5840   63.5970   26.4980 C   0  0  0  0  0  0  0  0  0  0  0  0
  -21.6870   62.8240   26.9360 O   0  0  0  0  0  0  0  0  0  0  0  0
  -25.6100   66.1960   25.0680 C   0  0  1  0  0  0  0  0  0  0  0  0
  -25.2700   66.6990   23.6720 C   0  0  0  0  0  0  0  0  0  0  0  0
  -26.6200   66.8210   23.0340 C   0  0  2  0  0  0  0  0  0  0  0  0
  -27.4260   65.7450   23.7600 C   0  0  1  0  0  0  0  0  0  0  0  0
  -26.8550   65.5270   25.0320 O   0  0  0  0  0  0  0  0  0  0  0  0
  -26.5410   66.5680   21.6550 O   0  0  0  0  0  0  0  0  0  0  0  0
  -25.5770   66.5770   21.4230 H   0  0  0  0  0  0  0  0  0  0  0  0
  -28.9010   66.1420   23.9080 C   0  0  0  0  0  0  0  0  0  0  0  0
  -29.0270   67.5370   23.9610 O   0  0  0  0  0  0  0  0  0  0  0  0
  -28.3650   67.9100   23.3230 H   0  0  0  0  0  0  0  0  0  0  0  0
  -20.8460   64.8370   25.2740 C   0  0  0  0  0  0  0  0  0  0  0  0
  -20.5590   64.1960   23.9400 C   0  0  0  0  0  0  0  0  0  0  0  0
  -21.2690   63.0530   23.5350 C   0  0  0  0  0  0  0  0  0  0  0  0
  -21.0070   62.4620   22.2950 C   0  0  0  0  0  0  0  0  0  0  0  0
  -20.0350   63.0070   21.4510 C   0  0  0  0  0  0  0  0  0  0  0  0
  -19.3230   64.1420   21.8460 C   0  0  0  0  0  0  0  0  0  0  0  0
  -19.5800   64.7350   23.0850 C   0  0  0  0  0  0  0  0  0  0  0  0
  2  1  1  0  0  0  0
  3  2  2  0  0  0  0
  4  3  1  0  0  0  0
  5  4  1  0  0  0  0
  5  7  1  0  0  0  0
  6  5  2  0  0  0  0
  7  8  1  0  0  0  0
  8  2  1  0  0  0  0
  8  9  2  0  0  0  0
 10 11  1  6  0  0  0
 10  4  1  0  0  0  0
 12 15  1  6  0  0  0
 12 11  1  0  0  0  0
 12 13  1  0  0  0  0
 13 17  1  1  0  0  0
 13 14  1  0  0  0  0
 14 10  1  0  0  0  0
 16 15  1  0  0  0  0
 17 18  1  0  0  0  0
 19 18  1  0  0  0  0
 20  7  1  0  0  0  0
 21 20  1  0  0  0  0
 22 21  1  0  0  0  0
 23 22  2  0  0  0  0
 24 25  2  0  0  0  0
 24 23  1  0  0  0  0
 25 26  1  0  0  0  0
 26 21  2  0  0  0  0
M  END
>  <REMARK>
 VINA RESULT:      -7.8      3.190      7.194
  6 active torsions:
  status: ('A' for Active; 'I' for Inactive)
    1  A    between atoms: N1_4  and  C4_5 
    2  A    between atoms: C6_7  and  O1_8 
    3  A    between atoms: C7_9  and  C8_10 
    4  A    between atoms: C8_10  and  O2_11 
    5  A    between atoms: N2_15  and  C10_16 
    6  A    between atoms: C10_16  and  C11_17 

>  <TORSDO>
F 6

$$$$
../pdbqt/decoy.vina_out.44.pdbqt
 OpenBabel06052021513D

 26 28  0  0  1  0  0  0  0  0999 V2000
  -20.0290   67.9900   26.7120 C   0  0  0  0  0  0  0  0  0  0  0  0
  -20.3840   66.7440   25.9490 C   0  0  0  0  0  0  0  0  0  0  0  0
  -19.6510   66.3700   24.8240 C   0  0  0  0  0  0  0  0  0  0  0  0
  -19.9580   65.2300   24.1350 N   0  0  0  0  0  0  0  0  0  0  0  0
  -21.0320   64.4670   24.5210 C   0  0  0  0  0  0  0  0  0  0  0  0
  -21.3410   63.4410   23.8520 O   0  0  0  0  0  0  0  0  0  0  0  0
  -21.7760   64.8120   25.6250 N   0  0  0  0  0  0  0  0  0  0  0  0
  -21.4540   65.9350   26.3430 C   0  0  0  0  0  0  0  0  0  0  0  0
  -22.1240   66.2520   27.3660 O   0  0  0  0  0  0  0  0  0  0  0  0
  -19.1720   64.8770   22.9330 C   0  0  1  0  0  0  0  0  0  0  0  0
  -18.5640   66.1200   22.2980 C   0  0  0  0  0  0  0  0  0  0  0  0
  -17.2760   65.5990   21.7370 C   0  0  2  0  0  0  0  0  0  0  0  0
  -16.9420   64.4510   22.6870 C   0  0  1  0  0  0  0  0  0  0  0  0
  -18.1400   63.9660   23.2560 O   0  0  0  0  0  0  0  0  0  0  0  0
  -16.2860   66.5950   21.7600 O   0  0  0  0  0  0  0  0  0  0  0  0
  -15.9910   66.7180   20.8220 H   0  0  0  0  0  0  0  0  0  0  0  0
  -16.2060   63.3130   21.9690 C   0  0  0  0  0  0  0  0  0  0  0  0
  -15.9910   63.6430   20.6240 O   0  0  0  0  0  0  0  0  0  0  0  0
  -15.6370   62.8280   20.1820 H   0  0  0  0  0  0  0  0  0  0  0  0
  -22.9050   63.9660   26.0680 C   0  0  0  0  0  0  0  0  0  0  0  0
  -24.2190   64.5950   25.6800 C   0  0  0  0  0  0  0  0  0  0  0  0
  -24.3080   65.3980   24.5310 C   0  0  0  0  0  0  0  0  0  0  0  0
  -25.5290   65.9760   24.1670 C   0  0  0  0  0  0  0  0  0  0  0  0
  -26.6670   65.7580   24.9480 C   0  0  0  0  0  0  0  0  0  0  0  0
  -26.5870   64.9630   26.0940 C   0  0  0  0  0  0  0  0  0  0  0  0
  -25.3690   64.3840   26.4620 C   0  0  0  0  0  0  0  0  0  0  0  0
  2  8  1  0  0  0  0
  2  1  1  0  0  0  0
  3  2  2  0  0  0  0
  4  5  1  0  0  0  0
  4  3  1  0  0  0  0
  5  7  1  0  0  0  0
  6  5  2  0  0  0  0
  7 20  1  0  0  0  0
  7  8  1  0  0  0  0
  8  9  2  0  0  0  0
 10 11  1  1  0  0  0
 10 14  1  0  0  0  0
 10  4  1  0  0  0  0
 12 15  1  1  0  0  0
 12 11  1  0  0  0  0
 12 13  1  0  0  0  0
 13 17  1  6  0  0  0
 13 14  1  0  0  0  0
 16 15  1  0  0  0  0
 18 17  1  0  0  0  0
 19 18  1  0  0  0  0
 21 20  1  0  0  0  0
 21 26  2  0  0  0  0
 22 21  1  0  0  0  0
 23 22  2  0  0  0  0
 23 24  1  0  0  0  0
 24 25  2  0  0  0  0
 25 26  1  0  0  0  0
M  END
>  <REMARK>
 VINA RESULT:      -7.6      1.572      2.537
  6 active torsions:
  status: ('A' for Active; 'I' for Inactive)
    1  A    between atoms: N1_4  and  C4_5 
    2  A    between atoms: C6_7  and  O1_8 
    3  A    between atoms: C7_9  and  C8_10 
    4  A    between atoms: C8_10  and  O2_11 
    5  A    between atoms: N2_15  and  C10_16 
    6  A    between atoms: C10_16  and  C11_17 

>  <TORSDO>
F 6

$$$$
../pdbqt/decoy.vina_out.44.pdbqt
 OpenBabel06052021513D

 26 28  0  0  1  0  0  0  0  0999 V2000
  -27.7070   66.3930   23.7730 C   0  0  0  0  0  0  0  0  0  0  0  0
  -26.7610   65.8280   24.7960 C   0  0  0  0  0  0  0  0  0  0  0  0
  -27.2430   65.0950   25.8790 C   0  0  0  0  0  0  0  0  0  0  0  0
  -26.3880   64.5650   26.8030 N   0  0  0  0  0  0  0  0  0  0  0  0
  -25.0380   64.7970   26.6970 C   0  0  0  0  0  0  0  0  0  0  0  0
  -24.2560   64.3450   27.5800 O   0  0  0  0  0  0  0  0  0  0  0  0
  -24.5330   65.5180   25.6410 N   0  0  0  0  0  0  0  0  0  0  0  0
  -25.3800   66.0250   24.6890 C   0  0  0  0  0  0  0  0  0  0  0  0
  -24.9230   66.6780   23.7090 O   0  0  0  0  0  0  0  0  0  0  0  0
  -26.9380   63.8120   27.9500 C   0  0  1  0  0  0  0  0  0  0  0  0
  -26.4530   62.3690   27.9340 C   0  0  0  0  0  0  0  0  0  0  0  0
  -26.3630   62.0420   29.3930 C   0  0  2  0  0  0  0  0  0  0  0  0
  -26.0620   63.4020   30.0180 C   0  0  1  0  0  0  0  0  0  0  0  0
  -26.5670   64.4150   29.1740 O   0  0  0  0  0  0  0  0  0  0  0  0
  -25.3290   61.1220   29.6320 O   0  0  0  0  0  0  0  0  0  0  0  0
  -25.1450   61.1540   30.6060 H   0  0  0  0  0  0  0  0  0  0  0  0
  -26.6750   63.5340   31.4180 C   0  0  0  0  0  0  0  0  0  0  0  0
  -26.3260   62.4310   32.2090 O   0  0  0  0  0  0  0  0  0  0  0  0
  -26.0440   61.7100   31.5880 H   0  0  0  0  0  0  0  0  0  0  0  0
  -23.0760   65.7300   25.5010 C   0  0  0  0  0  0  0  0  0  0  0  0
  -22.3770   64.4260   25.2130 C   0  0  0  0  0  0  0  0  0  0  0  0
  -21.3700   63.9560   26.0730 C   0  0  0  0  0  0  0  0  0  0  0  0
  -20.7270   62.7430   25.8090 C   0  0  0  0  0  0  0  0  0  0  0  0
  -21.0830   61.9910   24.6870 C   0  0  0  0  0  0  0  0  0  0  0  0
  -22.0820   62.4510   23.8250 C   0  0  0  0  0  0  0  0  0  0  0  0
  -22.7270   63.6640   24.0840 C   0  0  0  0  0  0  0  0  0  0  0  0
  1  2  1  0  0  0  0
  2  3  2  0  0  0  0
  3  4  1  0  0  0  0
  5  4  1  0  0  0  0
  5  6  2  0  0  0  0
  7  5  1  0  0  0  0
  8  2  1  0  0  0  0
  8  7  1  0  0  0  0
  9  8  2  0  0  0  0
 10  4  1  6  0  0  0
 10 14  1  0  0  0  0
 11 10  1  0  0  0  0
 11 12  1  0  0  0  0
 12 15  1  6  0  0  0
 12 13  1  0  0  0  0
 13 17  1  1  0  0  0
 14 13  1  0  0  0  0
 15 16  1  0  0  0  0
 17 18  1  0  0  0  0
 19 18  1  0  0  0  0
 20  7  1  0  0  0  0
 21 20  1  0  0  0  0
 21 22  2  0  0  0  0
 23 22  1  0  0  0  0
 24 23  2  0  0  0  0
 25 26  2  0  0  0  0
 25 24  1  0  0  0  0
 26 21  1  0  0  0  0
M  END
>  <REMARK>
 VINA RESULT:      -7.6      4.597      8.697
  6 active torsions:
  status: ('A' for Active; 'I' for Inactive)
    1  A    between atoms: N1_4  and  C4_5 
    2  A    between atoms: C6_7  and  O1_8 
    3  A    between atoms: C7_9  and  C8_10 
    4  A    between atoms: C8_10  and  O2_11 
    5  A    between atoms: N2_15  and  C10_16 
    6  A    between atoms: C10_16  and  C11_17 

>  <TORSDO>
F 6

$$$$
../pdbqt/decoy.vina_out.44.pdbqt
 OpenBabel06052021513D

 26 28  0  0  1  0  0  0  0  0999 V2000
  -21.2900   66.9540   28.7940 C   0  0  0  0  0  0  0  0  0  0  0  0
  -21.6090   65.9110   27.7570 C   0  0  0  0  0  0  0  0  0  0  0  0
  -20.9190   65.8820   26.5470 C   0  0  0  0  0  0  0  0  0  0  0  0
  -21.1910   64.9280   25.6080 N   0  0  0  0  0  0  0  0  0  0  0  0
  -22.1920   64.0150   25.8330 C   0  0  0  0  0  0  0  0  0  0  0  0
  -22.4730   63.1650   24.9420 O   0  0  0  0  0  0  0  0  0  0  0  0
  -22.8920   64.0200   27.0170 N   0  0  0  0  0  0  0  0  0  0  0  0
  -22.6020   64.9530   27.9790 C   0  0  0  0  0  0  0  0  0  0  0  0
  -23.2320   64.9570   29.0740 O   0  0  0  0  0  0  0  0  0  0  0  0
  -20.4530   64.9410   24.3270 C   0  0  1  0  0  0  0  0  0  0  0  0
  -19.9320   66.3370   24.0150 C   0  0  0  0  0  0  0  0  0  0  0  0
  -18.6540   66.0500   23.2890 C   0  0  2  0  0  0  0  0  0  0  0  0
  -18.2230   64.7150   23.8930 C   0  0  1  0  0  0  0  0  0  0  0  0
  -19.3690   64.0350   24.3610 O   0  0  0  0  0  0  0  0  0  0  0  0
  -17.7080   67.0580   23.5330 O   0  0  0  0  0  0  0  0  0  0  0  0
  -18.1860   67.9210   23.4350 H   0  0  0  0  0  0  0  0  0  0  0  0
  -17.4770   63.8430   22.8750 C   0  0  0  0  0  0  0  0  0  0  0  0
  -17.7110   62.4850   23.1300 O   0  0  0  0  0  0  0  0  0  0  0  0
  -17.3520   62.2980   24.0360 H   0  0  0  0  0  0  0  0  0  0  0  0
  -23.9390   63.0090   27.2780 C   0  0  0  0  0  0  0  0  0  0  0  0
  -25.3070   63.5820   27.0020 C   0  0  0  0  0  0  0  0  0  0  0  0
  -25.4610   64.6400   26.0910 C   0  0  0  0  0  0  0  0  0  0  0  0
  -26.7300   65.1670   25.8300 C   0  0  0  0  0  0  0  0  0  0  0  0
  -27.8520   64.6440   26.4780 C   0  0  0  0  0  0  0  0  0  0  0  0
  -27.7080   63.5940   27.3880 C   0  0  0  0  0  0  0  0  0  0  0  0
  -26.4410   63.0640   27.6520 C   0  0  0  0  0  0  0  0  0  0  0  0
  2  8  1  0  0  0  0
  2  1  1  0  0  0  0
  3  2  2  0  0  0  0
  4  5  1  0  0  0  0
  4  3  1  0  0  0  0
  5  7  1  0  0  0  0
  6  5  2  0  0  0  0
  7 20  1  0  0  0  0
  7  8  1  0  0  0  0
  8  9  2  0  0  0  0
 10 11  1  1  0  0  0
 10 14  1  0  0  0  0
 10  4  1  0  0  0  0
 12 15  1  1  0  0  0
 12 13  1  0  0  0  0
 12 11  1  0  0  0  0
 13 17  1  6  0  0  0
 13 14  1  0  0  0  0
 16 15  1  0  0  0  0
 17 18  1  0  0  0  0
 18 19  1  0  0  0  0
 21 20  1  0  0  0  0
 21 26  2  0  0  0  0
 22 21  1  0  0  0  0
 23 22  2  0  0  0  0
 23 24  1  0  0  0  0
 24 25  2  0  0  0  0
 25 26  1  0  0  0  0
M  END
>  <REMARK>
 VINA RESULT:      -7.5      2.212      3.505
  6 active torsions:
  status: ('A' for Active; 'I' for Inactive)
    1  A    between atoms: N1_4  and  C4_5 
    2  A    between atoms: C6_7  and  O1_8 
    3  A    between atoms: C7_9  and  C8_10 
    4  A    between atoms: C8_10  and  O2_11 
    5  A    between atoms: N2_15  and  C10_16 
    6  A    between atoms: C10_16  and  C11_17 

>  <TORSDO>
F 6

$$$$
../pdbqt/decoy.vina_out.44.pdbqt
 OpenBabel06052021513D

 26 28  0  0  1  0  0  0  0  0999 V2000
  -27.3220   66.7050   23.8020 C   0  0  0  0  0  0  0  0  0  0  0  0
  -26.4250   65.9430   24.7380 C   0  0  0  0  0  0  0  0  0  0  0  0
  -26.9570   65.2640   25.8330 C   0  0  0  0  0  0  0  0  0  0  0  0
  -26.1500   64.5560   26.6780 N   0  0  0  0  0  0  0  0  0  0  0  0
  -24.7910   64.5510   26.4800 C   0  0  0  0  0  0  0  0  0  0  0  0
  -24.0450   63.9340   27.2920 O   0  0  0  0  0  0  0  0  0  0  0  0
  -24.2360   65.2130   25.4100 N   0  0  0  0  0  0  0  0  0  0  0  0
  -25.0420   65.8980   24.5370 C   0  0  0  0  0  0  0  0  0  0  0  0
  -24.5420   66.4980   23.5440 O   0  0  0  0  0  0  0  0  0  0  0  0
  -26.7480   63.8660   27.8410 C   0  0  1  0  0  0  0  0  0  0  0  0
  -26.3470   62.3980   27.8670 C   0  0  0  0  0  0  0  0  0  0  0  0
  -26.2820   62.1060   29.3350 C   0  0  2  0  0  0  0  0  0  0  0  0
  -25.9060   63.4640   29.9250 C   0  0  1  0  0  0  0  0  0  0  0  0
  -26.3490   64.4800   29.0510 O   0  0  0  0  0  0  0  0  0  0  0  0
  -25.3040   61.1360   29.6050 O   0  0  0  0  0  0  0  0  0  0  0  0
  -24.4320   61.5400   29.3590 H   0  0  0  0  0  0  0  0  0  0  0  0
  -26.5180   63.6690   31.3170 C   0  0  0  0  0  0  0  0  0  0  0  0
  -26.3190   62.5290   32.1100 O   0  0  0  0  0  0  0  0  0  0  0  0
  -27.2190   62.1880   32.3520 H   0  0  0  0  0  0  0  0  0  0  0  0
  -22.7780   65.1710   25.1710 C   0  0  0  0  0  0  0  0  0  0  0  0
  -22.0980   66.3330   25.8490 C   0  0  0  0  0  0  0  0  0  0  0  0
  -21.7600   67.4830   25.1150 C   0  0  0  0  0  0  0  0  0  0  0  0
  -21.1350   68.5640   25.7460 C   0  0  0  0  0  0  0  0  0  0  0  0
  -20.8430   68.5040   27.1110 C   0  0  0  0  0  0  0  0  0  0  0  0
  -21.1730   67.3640   27.8480 C   0  0  0  0  0  0  0  0  0  0  0  0
  -21.7960   66.2810   27.2220 C   0  0  0  0  0  0  0  0  0  0  0  0
  1  2  1  0  0  0  0
  2  3  2  0  0  0  0
  3  4  1  0  0  0  0
  5  4  1  0  0  0  0
  5  6  2  0  0  0  0
  7  5  1  0  0  0  0
  8  2  1  0  0  0  0
  8  7  1  0  0  0  0
  9  8  2  0  0  0  0
 10  4  1  6  0  0  0
 10 11  1  0  0  0  0
 10 14  1  0  0  0  0
 11 12  1  0  0  0  0
 12 15  1  6  0  0  0
 12 13  1  0  0  0  0
 13 17  1  1  0  0  0
 14 13  1  0  0  0  0
 16 15  1  0  0  0  0
 17 18  1  0  0  0  0
 18 19  1  0  0  0  0
 20  7  1  0  0  0  0
 20 21  1  0  0  0  0
 21 26  2  0  0  0  0
 22 23  2  0  0  0  0
 22 21  1  0  0  0  0
 23 24  1  0  0  0  0
 24 25  2  0  0  0  0
 26 25  1  0  0  0  0
M  END
>  <REMARK>
 VINA RESULT:      -7.4      4.651      8.593
  6 active torsions:
  status: ('A' for Active; 'I' for Inactive)
    1  A    between atoms: N1_4  and  C4_5 
    2  A    between atoms: C6_7  and  O1_8 
    3  A    between atoms: C7_9  and  C8_10 
    4  A    between atoms: C8_10  and  O2_11 
    5  A    between atoms: N2_15  and  C10_16 
    6  A    between atoms: C10_16  and  C11_17 

>  <TORSDO>
F 6

$$$$
../pdbqt/decoy.vina_out.44.pdbqt
 OpenBabel06052021513D

 26 28  0  0  1  0  0  0  0  0999 V2000
  -22.2500   62.2110   24.7830 C   0  0  0  0  0  0  0  0  0  0  0  0
  -22.2220   63.7100   24.9070 C   0  0  0  0  0  0  0  0  0  0  0  0
  -23.3930   64.4540   24.7750 C   0  0  0  0  0  0  0  0  0  0  0  0
  -23.3770   65.8140   24.9030 N   0  0  0  0  0  0  0  0  0  0  0  0
  -22.1870   66.4660   25.1140 C   0  0  0  0  0  0  0  0  0  0  0  0
  -22.1710   67.7270   25.1840 O   0  0  0  0  0  0  0  0  0  0  0  0
  -21.0150   65.7590   25.2470 N   0  0  0  0  0  0  0  0  0  0  0  0
  -21.0260   64.3910   25.1540 C   0  0  0  0  0  0  0  0  0  0  0  0
  -19.9560   63.7340   25.2880 O   0  0  0  0  0  0  0  0  0  0  0  0
  -24.6350   66.5720   24.7340 C   0  0  1  0  0  0  0  0  0  0  0  0
  -24.8180   67.0050   23.2870 C   0  0  0  0  0  0  0  0  0  0  0  0
  -26.3070   66.9640   23.1220 C   0  0  2  0  0  0  0  0  0  0  0  0
  -26.7180   65.8750   24.1110 C   0  0  1  0  0  0  0  0  0  0  0  0
  -25.7480   65.7960   25.1330 O   0  0  0  0  0  0  0  0  0  0  0  0
  -26.6510   66.6250   21.8040 O   0  0  0  0  0  0  0  0  0  0  0  0
  -25.8350   66.2430   21.3910 H   0  0  0  0  0  0  0  0  0  0  0  0
  -28.0990   66.1510   24.7200 C   0  0  0  0  0  0  0  0  0  0  0  0
  -28.7580   67.1570   24.0000 O   0  0  0  0  0  0  0  0  0  0  0  0
  -28.1980   67.9740   24.0720 H   0  0  0  0  0  0  0  0  0  0  0  0
  -19.7400   66.4580   25.5200 C   0  0  0  0  0  0  0  0  0  0  0  0
  -18.8140   66.3480   24.3340 C   0  0  0  0  0  0  0  0  0  0  0  0
  -19.3320   66.3450   23.0290 C   0  0  0  0  0  0  0  0  0  0  0  0
  -18.4730   66.2500   21.9290 C   0  0  0  0  0  0  0  0  0  0  0  0
  -17.0930   66.1560   22.1250 C   0  0  0  0  0  0  0  0  0  0  0  0
  -16.5690   66.1560   23.4200 C   0  0  0  0  0  0  0  0  0  0  0  0
  -17.4240   66.2500   24.5220 C   0  0  0  0  0  0  0  0  0  0  0  0
  1  2  1  0  0  0  0
  2  8  1  0  0  0  0
  3  4  1  0  0  0  0
  3  2  2  0  0  0  0
  4  5  1  0  0  0  0
  5  6  2  0  0  0  0
  5  7  1  0  0  0  0
  7 20  1  0  0  0  0
  8  7  1  0  0  0  0
  8  9  2  0  0  0  0
 10 11  1  6  0  0  0
 10  4  1  0  0  0  0
 10 14  1  0  0  0  0
 12 15  1  6  0  0  0
 12 11  1  0  0  0  0
 12 13  1  0  0  0  0
 13 17  1  1  0  0  0
 13 14  1  0  0  0  0
 16 15  1  0  0  0  0
 18 19  1  0  0  0  0
 18 17  1  0  0  0  0
 21 26  1  0  0  0  0
 21 20  1  0  0  0  0
 22 21  2  0  0  0  0
 23 24  2  0  0  0  0
 23 22  1  0  0  0  0
 24 25  1  0  0  0  0
 25 26  2  0  0  0  0
M  END
>  <REMARK>
 VINA RESULT:      -7.4      2.688      7.199
  6 active torsions:
  status: ('A' for Active; 'I' for Inactive)
    1  A    between atoms: N1_4  and  C4_5 
    2  A    between atoms: C6_7  and  O1_8 
    3  A    between atoms: C7_9  and  C8_10 
    4  A    between atoms: C8_10  and  O2_11 
    5  A    between atoms: N2_15  and  C10_16 
    6  A    between atoms: C10_16  and  C11_17 

>  <TORSDO>
F 6

$$$$
../pdbqt/decoy.vina_out.44.pdbqt
 OpenBabel06052021513D

 26 28  0  0  1  0  0  0  0  0999 V2000
  -24.3880   62.3720   27.6610 C   0  0  0  0  0  0  0  0  0  0  0  0
  -24.0290   63.5810   26.8410 C   0  0  0  0  0  0  0  0  0  0  0  0
  -25.0250   64.4030   26.3160 C   0  0  0  0  0  0  0  0  0  0  0  0
  -24.7050   65.5110   25.5840 N   0  0  0  0  0  0  0  0  0  0  0  0
  -23.3890   65.7960   25.3160 C   0  0  0  0  0  0  0  0  0  0  0  0
  -23.1000   66.7950   24.5990 O   0  0  0  0  0  0  0  0  0  0  0  0
  -22.3840   65.0030   25.8180 N   0  0  0  0  0  0  0  0  0  0  0  0
  -22.6940   63.9070   26.5830 C   0  0  0  0  0  0  0  0  0  0  0  0
  -21.7770   63.1800   27.0580 O   0  0  0  0  0  0  0  0  0  0  0  0
  -25.7890   66.3470   25.0260 C   0  0  1  0  0  0  0  0  0  0  0  0
  -25.4570   66.7890   23.6070 C   0  0  0  0  0  0  0  0  0  0  0  0
  -26.8080   66.8430   22.9610 C   0  0  2  0  0  0  0  0  0  0  0  0
  -27.5880   65.7840   23.7380 C   0  0  1  0  0  0  0  0  0  0  0  0
  -27.0150   65.6450   25.0210 O   0  0  0  0  0  0  0  0  0  0  0  0
  -26.7180   66.5240   21.5970 O   0  0  0  0  0  0  0  0  0  0  0  0
  -27.5850   66.1110   21.3480 H   0  0  0  0  0  0  0  0  0  0  0  0
  -29.0730   66.1480   23.8630 C   0  0  0  0  0  0  0  0  0  0  0  0
  -29.8510   64.9880   23.9790 O   0  0  0  0  0  0  0  0  0  0  0  0
  -30.1190   64.7300   23.0590 H   0  0  0  0  0  0  0  0  0  0  0  0
  -20.9650   65.3340   25.5680 C   0  0  0  0  0  0  0  0  0  0  0  0
  -20.6090   66.6510   26.2090 C   0  0  0  0  0  0  0  0  0  0  0  0
  -19.9330   67.6380   25.4730 C   0  0  0  0  0  0  0  0  0  0  0  0
  -19.6080   68.8630   26.0660 C   0  0  0  0  0  0  0  0  0  0  0  0
  -19.9550   69.1100   27.3970 C   0  0  0  0  0  0  0  0  0  0  0  0
  -20.6250   68.1330   28.1370 C   0  0  0  0  0  0  0  0  0  0  0  0
  -20.9510   66.9080   27.5490 C   0  0  0  0  0  0  0  0  0  0  0  0
  2  1  1  0  0  0  0
  3  2  2  0  0  0  0
  4  3  1  0  0  0  0
  5  4  1  0  0  0  0
  5  7  1  0  0  0  0
  6  5  2  0  0  0  0
  7  8  1  0  0  0  0
  8  2  1  0  0  0  0
  8  9  2  0  0  0  0
 10 11  1  6  0  0  0
 10  4  1  0  0  0  0
 12 15  1  6  0  0  0
 12 11  1  0  0  0  0
 12 13  1  0  0  0  0
 13 17  1  1  0  0  0
 13 14  1  0  0  0  0
 14 10  1  0  0  0  0
 16 15  1  0  0  0  0
 17 18  1  0  0  0  0
 19 18  1  0  0  0  0
 20  7  1  0  0  0  0
 20 21  1  0  0  0  0
 21 26  2  0  0  0  0
 22 23  2  0  0  0  0
 22 21  1  0  0  0  0
 23 24  1  0  0  0  0
 24 25  2  0  0  0  0
 26 25  1  0  0  0  0
M  END
>  <REMARK>
 VINA RESULT:      -7.3      3.960      7.312
  6 active torsions:
  status: ('A' for Active; 'I' for Inactive)
    1  A    between atoms: N1_4  and  C4_5 
    2  A    between atoms: C6_7  and  O1_8 
    3  A    between atoms: C7_9  and  C8_10 
    4  A    between atoms: C8_10  and  O2_11 
    5  A    between atoms: N2_15  and  C10_16 
    6  A    between atoms: C10_16  and  C11_17 

>  <TORSDO>
F 6

$$$$
