../pdbqt/decoy.vina_out.62.pdbqt
 OpenBabel06052021513D

 18 20  0  0  0  0  0  0  0  0999 V2000
  -21.2320   63.2260   26.7980 C   0  0  0  0  0  0  0  0  0  0  0  0
  -22.7080   63.4610   26.8600 C   0  0  0  0  0  0  0  0  0  0  0  0
  -23.2790   64.5450   26.1830 C   0  0  0  0  0  0  0  0  0  0  0  0
  -24.6680   64.7590   26.2450 C   0  0  0  0  0  0  0  0  0  0  0  0
  -25.4620   63.8700   26.9940 C   0  0  0  0  0  0  0  0  0  0  0  0
  -26.8560   64.0320   27.0970 C   0  0  0  0  0  0  0  0  0  0  0  0
  -27.6150   63.1310   27.8510 C   0  0  0  0  0  0  0  0  0  0  0  0
  -26.9950   62.0650   28.5070 C   0  0  0  0  0  0  0  0  0  0  0  0
  -25.6110   61.8930   28.4140 C   0  0  0  0  0  0  0  0  0  0  0  0
  -24.8420   62.7890   27.6620 C   0  0  0  0  0  0  0  0  0  0  0  0
  -23.4960   62.6170   27.5770 N   0  0  0  0  0  0  0  0  0  0  0  0
  -25.2820   65.8340   25.5810 O   0  0  0  0  0  0  0  0  0  0  0  0
  -25.0860   66.1600   24.2080 C   0  0  0  0  0  0  0  0  0  0  0  0
  -26.4310   66.4620   23.5540 C   0  0  0  0  0  0  0  0  0  0  0  0
  -27.5280   66.2160   24.5060 N   0  0  0  0  0  0  0  0  0  0  0  0
  -28.6350   65.3710   24.0090 C   0  0  0  0  0  0  0  0  0  0  0  0
  -28.8140   66.8250   24.1030 C   0  0  0  0  0  0  0  0  0  0  0  0
  -27.3670   66.2120   25.5390 H   0  0  0  0  0  0  0  0  0  0  0  0
  1  2  1  0  0  0  0
  2 11  2  0  0  0  0
  3  4  2  0  0  0  0
  3  2  1  0  0  0  0
  4  5  1  0  0  0  0
  5  6  2  0  0  0  0
  5 10  1  0  0  0  0
  6  7  1  0  0  0  0
  7  8  2  0  0  0  0
  9  8  1  0  0  0  0
 10  9  2  0  0  0  0
 11 10  1  0  0  0  0
 12  4  1  0  0  0  0
 13 12  1  0  0  0  0
 14 13  1  0  0  0  0
 14 15  1  0  0  0  0
 15 18  1  0  0  0  0
 16 17  1  0  0  0  0
 16 15  1  0  0  0  0
 17 15  1  0  0  0  0
M  END
>  <MODEL>
1

>  <REMARK>
 VINA RESULT:      -7.0      0.000      0.000
  4 active torsions:
  status: ('A' for Active; 'I' for Inactive)
    1  A    between atoms: C4_4  and  O1_5 
    2  A    between atoms: O1_5  and  C5_6 
    3  A    between atoms: C5_6  and  C6_7 
    4  A    between atoms: C6_7  and  N1_8 

>  <TORSDO>
F 4

$$$$
../pdbqt/decoy.vina_out.62.pdbqt
 OpenBabel06052021513D

 18 20  0  0  0  0  0  0  0  0999 V2000
  -26.9990   62.4080   28.8420 C   0  0  0  0  0  0  0  0  0  0  0  0
  -26.8880   63.3740   27.7050 C   0  0  0  0  0  0  0  0  0  0  0  0
  -25.6670   64.0020   27.4300 C   0  0  0  0  0  0  0  0  0  0  0  0
  -25.5710   64.9090   26.3580 C   0  0  0  0  0  0  0  0  0  0  0  0
  -26.7130   65.1660   25.5770 C   0  0  0  0  0  0  0  0  0  0  0  0
  -26.6810   66.0630   24.4930 C   0  0  0  0  0  0  0  0  0  0  0  0
  -27.8350   66.2970   23.7390 C   0  0  0  0  0  0  0  0  0  0  0  0
  -29.0270   65.6420   24.0560 C   0  0  0  0  0  0  0  0  0  0  0  0
  -29.0730   64.7490   25.1300 C   0  0  0  0  0  0  0  0  0  0  0  0
  -27.9250   64.5070   25.8910 C   0  0  0  0  0  0  0  0  0  0  0  0
  -27.9760   63.6390   26.9350 N   0  0  0  0  0  0  0  0  0  0  0  0
  -24.3660   65.5620   26.0470 O   0  0  0  0  0  0  0  0  0  0  0  0
  -23.1120   64.9110   25.8640 C   0  0  0  0  0  0  0  0  0  0  0  0
  -23.1560   64.0550   24.6020 C   0  0  0  0  0  0  0  0  0  0  0  0
  -21.8030   63.5900   24.2540 N   0  0  0  0  0  0  0  0  0  0  0  0
  -21.7300   62.5320   23.2240 C   0  0  0  0  0  0  0  0  0  0  0  0
  -21.5390   62.1860   24.6370 C   0  0  0  0  0  0  0  0  0  0  0  0
  -20.9690   64.2150   24.3390 H   0  0  0  0  0  0  0  0  0  0  0  0
  2  1  1  0  0  0  0
  3  2  1  0  0  0  0
  4  3  2  0  0  0  0
  5 10  1  0  0  0  0
  5  4  1  0  0  0  0
  6  5  2  0  0  0  0
  7  8  2  0  0  0  0
  7  6  1  0  0  0  0
  8  9  1  0  0  0  0
  9 10  2  0  0  0  0
 10 11  1  0  0  0  0
 11  2  2  0  0  0  0
 12  4  1  0  0  0  0
 13 12  1  0  0  0  0
 14 13  1  0  0  0  0
 15 18  1  0  0  0  0
 15 14  1  0  0  0  0
 15 17  1  0  0  0  0
 16 15  1  0  0  0  0
 16 17  1  0  0  0  0
M  END
>  <REMARK>
 VINA RESULT:      -6.9      1.940      4.914
  4 active torsions:
  status: ('A' for Active; 'I' for Inactive)
    1  A    between atoms: C4_4  and  O1_5 
    2  A    between atoms: O1_5  and  C5_6 
    3  A    between atoms: C5_6  and  C6_7 
    4  A    between atoms: C6_7  and  N1_8 

>  <TORSDO>
F 4

$$$$
../pdbqt/decoy.vina_out.62.pdbqt
 OpenBabel06052021513D

 18 20  0  0  0  0  0  0  0  0999 V2000
  -22.9420   65.9210   25.9510 C   0  0  0  0  0  0  0  0  0  0  0  0
  -24.3890   65.5540   25.8560 C   0  0  0  0  0  0  0  0  0  0  0  0
  -24.9390   64.6140   26.7360 C   0  0  0  0  0  0  0  0  0  0  0  0
  -26.3010   64.2760   26.6410 C   0  0  0  0  0  0  0  0  0  0  0  0
  -27.0900   64.8950   25.6530 C   0  0  0  0  0  0  0  0  0  0  0  0
  -28.4580   64.5970   25.5060 C   0  0  0  0  0  0  0  0  0  0  0  0
  -29.2130   65.2300   24.5130 C   0  0  0  0  0  0  0  0  0  0  0  0
  -28.6150   66.1620   23.6620 C   0  0  0  0  0  0  0  0  0  0  0  0
  -27.2570   66.4660   23.7960 C   0  0  0  0  0  0  0  0  0  0  0  0
  -26.4920   65.8390   24.7860 C   0  0  0  0  0  0  0  0  0  0  0  0
  -25.1730   66.1390   24.9110 N   0  0  0  0  0  0  0  0  0  0  0  0
  -26.8930   63.3380   27.5040 O   0  0  0  0  0  0  0  0  0  0  0  0
  -26.1790   62.3600   28.2540 C   0  0  0  0  0  0  0  0  0  0  0  0
  -26.8200   62.1980   29.6290 C   0  0  0  0  0  0  0  0  0  0  0  0
  -25.8940   62.6520   30.6790 N   0  0  0  0  0  0  0  0  0  0  0  0
  -26.4950   63.4560   31.7660 C   0  0  0  0  0  0  0  0  0  0  0  0
  -25.7090   64.1190   30.7180 C   0  0  0  0  0  0  0  0  0  0  0  0
  -25.0320   62.1110   30.9230 H   0  0  0  0  0  0  0  0  0  0  0  0
  2  1  1  0  0  0  0
  2  3  2  0  0  0  0
  4  3  1  0  0  0  0
  4 12  1  0  0  0  0
  5  4  2  0  0  0  0
  6  5  1  0  0  0  0
  7  6  2  0  0  0  0
  8  9  2  0  0  0  0
  8  7  1  0  0  0  0
  9 10  1  0  0  0  0
 10 11  2  0  0  0  0
 10  5  1  0  0  0  0
 11  2  1  0  0  0  0
 12 13  1  0  0  0  0
 13 14  1  0  0  0  0
 14 15  1  0  0  0  0
 15 17  1  0  0  0  0
 15 18  1  0  0  0  0
 15 16  1  0  0  0  0
 17 16  1  0  0  0  0
M  END
>  <REMARK>
 VINA RESULT:      -6.9      2.059      5.242
  4 active torsions:
  status: ('A' for Active; 'I' for Inactive)
    1  A    between atoms: C4_4  and  O1_5 
    2  A    between atoms: O1_5  and  C5_6 
    3  A    between atoms: C5_6  and  C6_7 
    4  A    between atoms: C6_7  and  N1_8 

>  <TORSDO>
F 4

$$$$
../pdbqt/decoy.vina_out.62.pdbqt
 OpenBabel06052021513D

 18 20  0  0  0  0  0  0  0  0999 V2000
  -25.9740   62.9890   28.0420 C   0  0  0  0  0  0  0  0  0  0  0  0
  -25.7040   63.9940   26.9680 C   0  0  0  0  0  0  0  0  0  0  0  0
  -24.3870   64.3450   26.6450 C   0  0  0  0  0  0  0  0  0  0  0  0
  -24.1420   65.2910   25.6330 C   0  0  0  0  0  0  0  0  0  0  0  0
  -25.2340   65.8690   24.9590 C   0  0  0  0  0  0  0  0  0  0  0  0
  -25.0540   66.8220   23.9400 C   0  0  0  0  0  0  0  0  0  0  0  0
  -26.1620   67.3780   23.2920 C   0  0  0  0  0  0  0  0  0  0  0  0
  -27.4540   66.9920   23.6530 C   0  0  0  0  0  0  0  0  0  0  0  0
  -27.6480   66.0470   24.6650 C   0  0  0  0  0  0  0  0  0  0  0  0
  -26.5470   65.4840   25.3190 C   0  0  0  0  0  0  0  0  0  0  0  0
  -26.7420   64.5670   26.3030 N   0  0  0  0  0  0  0  0  0  0  0  0
  -22.8370   65.6720   25.2770 O   0  0  0  0  0  0  0  0  0  0  0  0
  -22.0330   66.5970   26.0020 C   0  0  0  0  0  0  0  0  0  0  0  0
  -21.2390   67.4630   25.0290 C   0  0  0  0  0  0  0  0  0  0  0  0
  -21.1600   68.8460   25.5250 N   0  0  0  0  0  0  0  0  0  0  0  0
  -19.8330   69.2820   26.0130 C   0  0  0  0  0  0  0  0  0  0  0  0
  -20.8880   68.9450   26.9760 C   0  0  0  0  0  0  0  0  0  0  0  0
  -21.7910   69.5970   25.1620 H   0  0  0  0  0  0  0  0  0  0  0  0
  2  1  1  0  0  0  0
  3  2  1  0  0  0  0
  4  3  2  0  0  0  0
  5 10  1  0  0  0  0
  5  4  1  0  0  0  0
  6  5  2  0  0  0  0
  7  8  2  0  0  0  0
  7  6  1  0  0  0  0
  8  9  1  0  0  0  0
  9 10  2  0  0  0  0
 10 11  1  0  0  0  0
 11  2  2  0  0  0  0
 12  4  1  0  0  0  0
 12 13  1  0  0  0  0
 14 15  1  0  0  0  0
 14 13  1  0  0  0  0
 15 16  1  0  0  0  0
 15 17  1  0  0  0  0
 16 17  1  0  0  0  0
 18 15  1  0  0  0  0
M  END
>  <REMARK>
 VINA RESULT:      -6.8      3.000      5.373
  4 active torsions:
  status: ('A' for Active; 'I' for Inactive)
    1  A    between atoms: C4_4  and  O1_5 
    2  A    between atoms: O1_5  and  C5_6 
    3  A    between atoms: C5_6  and  C6_7 
    4  A    between atoms: C6_7  and  N1_8 

>  <TORSDO>
F 4

$$$$
../pdbqt/decoy.vina_out.62.pdbqt
 OpenBabel06052021513D

 18 20  0  0  0  0  0  0  0  0999 V2000
  -26.0000   67.3720   22.8820 C   0  0  0  0  0  0  0  0  0  0  0  0
  -25.8960   66.4830   24.0810 C   0  0  0  0  0  0  0  0  0  0  0  0
  -24.6530   66.2520   24.6820 C   0  0  0  0  0  0  0  0  0  0  0  0
  -24.5630   65.4160   25.8100 C   0  0  0  0  0  0  0  0  0  0  0  0
  -25.7360   64.8230   26.3150 C   0  0  0  0  0  0  0  0  0  0  0  0
  -25.7120   63.9750   27.4370 C   0  0  0  0  0  0  0  0  0  0  0  0
  -26.8960   63.4020   27.9120 C   0  0  0  0  0  0  0  0  0  0  0  0
  -28.1100   63.6670   27.2750 C   0  0  0  0  0  0  0  0  0  0  0  0
  -28.1490   64.5060   26.1580 C   0  0  0  0  0  0  0  0  0  0  0  0
  -26.9700   65.0850   25.6740 C   0  0  0  0  0  0  0  0  0  0  0  0
  -27.0140   65.9000   24.5880 N   0  0  0  0  0  0  0  0  0  0  0  0
  -23.3370   65.1570   26.4440 O   0  0  0  0  0  0  0  0  0  0  0  0
  -22.0650   65.2000   25.8030 C   0  0  0  0  0  0  0  0  0  0  0  0
  -21.2730   63.9420   26.1480 C   0  0  0  0  0  0  0  0  0  0  0  0
  -21.9430   62.7510   25.6000 N   0  0  0  0  0  0  0  0  0  0  0  0
  -21.0680   61.7820   24.9040 C   0  0  0  0  0  0  0  0  0  0  0  0
  -21.9230   62.6840   24.1220 C   0  0  0  0  0  0  0  0  0  0  0  0
  -22.8150   62.3650   26.0290 H   0  0  0  0  0  0  0  0  0  0  0  0
  1  2  1  0  0  0  0
  2 11  2  0  0  0  0
  2  3  1  0  0  0  0
  3  4  2  0  0  0  0
  4  5  1  0  0  0  0
  4 12  1  0  0  0  0
  5  6  2  0  0  0  0
  6  7  1  0  0  0  0
  8  7  2  0  0  0  0
  9  8  1  0  0  0  0
 10  9  2  0  0  0  0
 10  5  1  0  0  0  0
 11 10  1  0  0  0  0
 13 14  1  0  0  0  0
 13 12  1  0  0  0  0
 15 18  1  0  0  0  0
 15 14  1  0  0  0  0
 16 15  1  0  0  0  0
 17 16  1  0  0  0  0
 17 15  1  0  0  0  0
M  END
>  <REMARK>
 VINA RESULT:      -6.7      1.605      4.852
  4 active torsions:
  status: ('A' for Active; 'I' for Inactive)
    1  A    between atoms: C4_4  and  O1_5 
    2  A    between atoms: O1_5  and  C5_6 
    3  A    between atoms: C5_6  and  C6_7 
    4  A    between atoms: C6_7  and  N1_8 

>  <TORSDO>
F 4

$$$$
../pdbqt/decoy.vina_out.62.pdbqt
 OpenBabel06052021513D

 18 20  0  0  0  0  0  0  0  0999 V2000
  -26.0020   67.3790   22.8810 C   0  0  0  0  0  0  0  0  0  0  0  0
  -25.8560   66.4750   24.0630 C   0  0  0  0  0  0  0  0  0  0  0  0
  -24.5920   66.2360   24.6170 C   0  0  0  0  0  0  0  0  0  0  0  0
  -24.4640   65.3850   25.7290 C   0  0  0  0  0  0  0  0  0  0  0  0
  -25.6180   64.7860   26.2680 C   0  0  0  0  0  0  0  0  0  0  0  0
  -25.5540   63.9240   27.3790 C   0  0  0  0  0  0  0  0  0  0  0  0
  -26.7210   63.3450   27.8880 C   0  0  0  0  0  0  0  0  0  0  0  0
  -27.9570   63.6190   27.2980 C   0  0  0  0  0  0  0  0  0  0  0  0
  -28.0350   64.4730   26.1940 C   0  0  0  0  0  0  0  0  0  0  0  0
  -26.8740   65.0580   25.6770 C   0  0  0  0  0  0  0  0  0  0  0  0
  -26.9560   65.8860   24.6030 N   0  0  0  0  0  0  0  0  0  0  0  0
  -23.2150   65.1170   26.3160 O   0  0  0  0  0  0  0  0  0  0  0  0
  -21.9580   65.2970   25.6700 C   0  0  0  0  0  0  0  0  0  0  0  0
  -21.0910   66.2480   26.4890 C   0  0  0  0  0  0  0  0  0  0  0  0
  -20.4320   67.2250   25.6070 N   0  0  0  0  0  0  0  0  0  0  0  0
  -19.8820   68.4260   26.2710 C   0  0  0  0  0  0  0  0  0  0  0  0
  -21.1390   68.5210   25.5180 C   0  0  0  0  0  0  0  0  0  0  0  0
  -19.9690   66.9340   24.7140 H   0  0  0  0  0  0  0  0  0  0  0  0
  1  2  1  0  0  0  0
  2 11  2  0  0  0  0
  2  3  1  0  0  0  0
  3  4  2  0  0  0  0
  4  5  1  0  0  0  0
  4 12  1  0  0  0  0
  5  6  2  0  0  0  0
  6  7  1  0  0  0  0
  8  7  2  0  0  0  0
  9  8  1  0  0  0  0
 10  9  2  0  0  0  0
 10  5  1  0  0  0  0
 11 10  1  0  0  0  0
 13 12  1  0  0  0  0
 13 14  1  0  0  0  0
 15 16  1  0  0  0  0
 15 14  1  0  0  0  0
 17 15  1  0  0  0  0
 17 16  1  0  0  0  0
 18 15  1  0  0  0  0
M  END
>  <REMARK>
 VINA RESULT:      -6.4      2.536      4.991
  4 active torsions:
  status: ('A' for Active; 'I' for Inactive)
    1  A    between atoms: C4_4  and  O1_5 
    2  A    between atoms: O1_5  and  C5_6 
    3  A    between atoms: C5_6  and  C6_7 
    4  A    between atoms: C6_7  and  N1_8 

>  <TORSDO>
F 4

$$$$
../pdbqt/decoy.vina_out.62.pdbqt
 OpenBabel06052021513D

 18 20  0  0  0  0  0  0  0  0999 V2000
  -21.7000   64.1260   28.5890 C   0  0  0  0  0  0  0  0  0  0  0  0
  -22.3910   64.7690   27.4290 C   0  0  0  0  0  0  0  0  0  0  0  0
  -21.6550   65.4890   26.4800 C   0  0  0  0  0  0  0  0  0  0  0  0
  -22.3120   66.0900   25.3910 C   0  0  0  0  0  0  0  0  0  0  0  0
  -23.7080   65.9530   25.2760 C   0  0  0  0  0  0  0  0  0  0  0  0
  -24.4230   66.5320   24.2120 C   0  0  0  0  0  0  0  0  0  0  0  0
  -25.8110   66.3770   24.1290 C   0  0  0  0  0  0  0  0  0  0  0  0
  -26.4960   65.6470   25.1030 C   0  0  0  0  0  0  0  0  0  0  0  0
  -25.7990   65.0670   26.1660 C   0  0  0  0  0  0  0  0  0  0  0  0
  -24.4100   65.2160   26.2590 C   0  0  0  0  0  0  0  0  0  0  0  0
  -23.7380   64.6500   27.2960 N   0  0  0  0  0  0  0  0  0  0  0  0
  -21.6130   66.8210   24.4160 O   0  0  0  0  0  0  0  0  0  0  0  0
  -20.2050   67.0380   24.4170 C   0  0  0  0  0  0  0  0  0  0  0  0
  -19.5220   65.9870   23.5460 C   0  0  0  0  0  0  0  0  0  0  0  0
  -18.8770   66.6260   22.3870 N   0  0  0  0  0  0  0  0  0  0  0  0
  -18.2190   65.7110   21.4290 C   0  0  0  0  0  0  0  0  0  0  0  0
  -17.4050   66.4860   22.3730 C   0  0  0  0  0  0  0  0  0  0  0  0
  -19.2180   67.5370   22.0010 H   0  0  0  0  0  0  0  0  0  0  0  0
  2  1  1  0  0  0  0
  3  2  2  0  0  0  0
  4  3  1  0  0  0  0
  5  4  2  0  0  0  0
  5 10  1  0  0  0  0
  6  5  1  0  0  0  0
  7  6  2  0  0  0  0
  7  8  1  0  0  0  0
  8  9  2  0  0  0  0
  9 10  1  0  0  0  0
 10 11  2  0  0  0  0
 11  2  1  0  0  0  0
 12 13  1  0  0  0  0
 12  4  1  0  0  0  0
 14 13  1  0  0  0  0
 15 14  1  0  0  0  0
 16 17  1  0  0  0  0
 16 15  1  0  0  0  0
 17 15  1  0  0  0  0
 18 15  1  0  0  0  0
M  END
>  <REMARK>
 VINA RESULT:      -6.1      3.726      5.663
  4 active torsions:
  status: ('A' for Active; 'I' for Inactive)
    1  A    between atoms: C4_4  and  O1_5 
    2  A    between atoms: O1_5  and  C5_6 
    3  A    between atoms: C5_6  and  C6_7 
    4  A    between atoms: C6_7  and  N1_8 

>  <TORSDO>
F 4

$$$$
../pdbqt/decoy.vina_out.62.pdbqt
 OpenBabel06052021513D

 18 20  0  0  0  0  0  0  0  0999 V2000
  -25.9340   67.3410   22.9680 C   0  0  0  0  0  0  0  0  0  0  0  0
  -25.7860   66.4240   24.1410 C   0  0  0  0  0  0  0  0  0  0  0  0
  -24.5160   66.1400   24.6590 C   0  0  0  0  0  0  0  0  0  0  0  0
  -24.3850   65.2780   25.7630 C   0  0  0  0  0  0  0  0  0  0  0  0
  -25.5440   64.7140   26.3290 C   0  0  0  0  0  0  0  0  0  0  0  0
  -25.4780   63.8430   27.4330 C   0  0  0  0  0  0  0  0  0  0  0  0
  -26.6490   63.2990   27.9700 C   0  0  0  0  0  0  0  0  0  0  0  0
  -27.8910   63.6170   27.4160 C   0  0  0  0  0  0  0  0  0  0  0  0
  -27.9710   64.4800   26.3190 C   0  0  0  0  0  0  0  0  0  0  0  0
  -26.8050   65.0300   25.7730 C   0  0  0  0  0  0  0  0  0  0  0  0
  -26.8890   65.8670   24.7070 N   0  0  0  0  0  0  0  0  0  0  0  0
  -23.1310   64.9660   26.3130 O   0  0  0  0  0  0  0  0  0  0  0  0
  -22.2650   65.9030   26.9470 C   0  0  0  0  0  0  0  0  0  0  0  0
  -22.0030   65.4690   28.3860 C   0  0  0  0  0  0  0  0  0  0  0  0
  -21.0190   66.3640   29.0180 N   0  0  0  0  0  0  0  0  0  0  0  0
  -20.9840   66.3430   30.4960 C   0  0  0  0  0  0  0  0  0  0  0  0
  -21.6270   67.4620   29.7980 C   0  0  0  0  0  0  0  0  0  0  0  0
  -20.1300   66.6300   28.5350 H   0  0  0  0  0  0  0  0  0  0  0  0
  1  2  1  0  0  0  0
  2  3  2  0  0  0  0
  2 11  1  0  0  0  0
  3  4  1  0  0  0  0
  4 12  1  0  0  0  0
  4  5  2  0  0  0  0
  5  6  1  0  0  0  0
  6  7  2  0  0  0  0
  8  7  1  0  0  0  0
  9  8  2  0  0  0  0
 10  9  1  0  0  0  0
 10  5  1  0  0  0  0
 11 10  2  0  0  0  0
 12 13  1  0  0  0  0
 13 14  1  0  0  0  0
 14 15  1  0  0  0  0
 15 17  1  0  0  0  0
 15 16  1  0  0  0  0
 17 16  1  0  0  0  0
 18 15  1  0  0  0  0
M  END
>  <REMARK>
 VINA RESULT:      -6.0      2.390      5.250
  4 active torsions:
  status: ('A' for Active; 'I' for Inactive)
    1  A    between atoms: C4_4  and  O1_5 
    2  A    between atoms: O1_5  and  C5_6 
    3  A    between atoms: C5_6  and  C6_7 
    4  A    between atoms: C6_7  and  N1_8 

>  <TORSDO>
F 4

$$$$
../pdbqt/decoy.vina_out.62.pdbqt
 OpenBabel06052021513D

 18 20  0  0  0  0  0  0  0  0999 V2000
  -20.9180   66.7480   25.0150 C   0  0  0  0  0  0  0  0  0  0  0  0
  -22.2420   66.2080   25.4520 C   0  0  0  0  0  0  0  0  0  0  0  0
  -22.3430   65.4440   26.6210 C   0  0  0  0  0  0  0  0  0  0  0  0
  -23.5930   64.9410   27.0250 C   0  0  0  0  0  0  0  0  0  0  0  0
  -24.7270   65.2190   26.2390 C   0  0  0  0  0  0  0  0  0  0  0  0
  -26.0040   64.7430   26.5890 C   0  0  0  0  0  0  0  0  0  0  0  0
  -27.1100   65.0370   25.7840 C   0  0  0  0  0  0  0  0  0  0  0  0
  -26.9540   65.8050   24.6280 C   0  0  0  0  0  0  0  0  0  0  0  0
  -25.6910   66.2840   24.2680 C   0  0  0  0  0  0  0  0  0  0  0  0
  -24.5780   65.9960   25.0660 C   0  0  0  0  0  0  0  0  0  0  0  0
  -23.3530   66.4640   24.7100 N   0  0  0  0  0  0  0  0  0  0  0  0
  -23.7390   64.1700   28.1900 O   0  0  0  0  0  0  0  0  0  0  0  0
  -22.8810   63.0980   28.5680 C   0  0  0  0  0  0  0  0  0  0  0  0
  -22.1280   63.4660   29.8440 C   0  0  0  0  0  0  0  0  0  0  0  0
  -21.3490   62.3140   30.3270 N   0  0  0  0  0  0  0  0  0  0  0  0
  -20.6380   62.5080   31.6090 C   0  0  0  0  0  0  0  0  0  0  0  0
  -19.8890   62.5490   30.3480 C   0  0  0  0  0  0  0  0  0  0  0  0
  -21.6150   61.3310   30.0870 H   0  0  0  0  0  0  0  0  0  0  0  0
  1  2  1  0  0  0  0
  2  3  2  0  0  0  0
  3  4  1  0  0  0  0
  4 12  1  0  0  0  0
  5  6  1  0  0  0  0
  5  4  2  0  0  0  0
  7  6  2  0  0  0  0
  8  7  1  0  0  0  0
  9  8  2  0  0  0  0
  9 10  1  0  0  0  0
 10  5  1  0  0  0  0
 11 10  2  0  0  0  0
 11  2  1  0  0  0  0
 12 13  1  0  0  0  0
 13 14  1  0  0  0  0
 14 15  1  0  0  0  0
 15 17  1  0  0  0  0
 15 16  1  0  0  0  0
 17 16  1  0  0  0  0
 18 15  1  0  0  0  0
M  END
>  <REMARK>
 VINA RESULT:      -5.8      2.651      6.008
  4 active torsions:
  status: ('A' for Active; 'I' for Inactive)
    1  A    between atoms: C4_4  and  O1_5 
    2  A    between atoms: O1_5  and  C5_6 
    3  A    between atoms: C5_6  and  C6_7 
    4  A    between atoms: C6_7  and  N1_8 

>  <TORSDO>
F 4

$$$$
