../pdbqt/decoy.vina_out.41.pdbqt
 OpenBabel06052021513D

 27 30  0  0  0  0  0  0  0  0999 V2000
  -23.2980   64.1090   26.4270 C   0  0  0  0  0  0  0  0  0  0  0  0
  -23.3970   62.7970   27.2590 C   0  0  0  0  0  0  0  0  0  0  0  0
  -22.5570   65.2300   27.1960 C   0  0  0  0  0  0  0  0  0  0  0  0
  -22.5240   65.4230   28.5970 C   0  0  0  0  0  0  0  0  0  0  0  0
  -23.2940   64.6240   29.6150 C   0  0  0  0  0  0  0  0  0  0  0  0
  -21.7990   66.5270   28.9160 N   0  0  0  0  0  0  0  0  0  0  0  0
  -21.4490   67.1010   27.7500 C   0  0  0  0  0  0  0  0  0  0  0  0
  -21.5530   67.0580   30.2610 C   0  0  0  0  0  0  0  0  0  0  0  0
  -21.9040   66.3600   26.6800 C   0  0  0  0  0  0  0  0  0  0  0  0
  -20.7790   68.3190   27.5720 C   0  0  0  0  0  0  0  0  0  0  0  0
  -21.7360   66.8320   25.3690 C   0  0  0  0  0  0  0  0  0  0  0  0
  -21.0540   68.0420   25.1690 C   0  0  0  0  0  0  0  0  0  0  0  0
  -20.5730   68.7800   26.2640 C   0  0  0  0  0  0  0  0  0  0  0  0
  -22.5120   63.7740   25.1730 C   0  0  0  0  0  0  0  0  0  0  0  0
  -23.0840   63.6650   24.0540 O   0  0  0  0  0  0  0  0  0  0  0  0
  -21.1380   63.5700   25.2470 O   0  0  0  0  0  0  0  0  0  0  0  0
  -24.7480   64.5400   26.1170 C   0  0  0  0  0  0  0  0  0  0  0  0
  -25.9090   64.0100   26.7250 C   0  0  0  0  0  0  0  0  0  0  0  0
  -25.9460   62.9990   27.8410 C   0  0  0  0  0  0  0  0  0  0  0  0
  -27.0300   64.5190   26.1550 N   0  0  0  0  0  0  0  0  0  0  0  0
  -28.4160   64.2220   26.5260 C   0  0  0  0  0  0  0  0  0  0  0  0
  -26.6190   65.4260   25.2500 C   0  0  0  0  0  0  0  0  0  0  0  0
  -27.4230   66.2660   24.4700 C   0  0  0  0  0  0  0  0  0  0  0  0
  -25.2410   65.4760   25.1890 C   0  0  0  0  0  0  0  0  0  0  0  0
  -26.7980   67.1750   23.6080 C   0  0  0  0  0  0  0  0  0  0  0  0
  -25.3970   67.2470   23.5490 C   0  0  0  0  0  0  0  0  0  0  0  0
  -24.6050   66.4050   24.3460 C   0  0  0  0  0  0  0  0  0  0  0  0
  1  3  1  0  0  0  0
  1  2  1  0  0  0  0
  3  4  2  0  0  0  0
  4  6  1  0  0  0  0
  4  5  1  0  0  0  0
  6  8  1  0  0  0  0
  7  6  1  0  0  0  0
  9  3  1  0  0  0  0
  9  7  2  0  0  0  0
 10  7  1  0  0  0  0
 11  9  1  0  0  0  0
 12 11  2  0  0  0  0
 12 13  1  0  0  0  0
 13 10  2  0  0  0  0
 14 16  1  0  0  0  0
 14  1  1  0  0  0  0
 15 14  2  0  0  0  0
 17  1  1  0  0  0  0
 17 18  2  0  0  0  0
 18 19  1  0  0  0  0
 20 21  1  0  0  0  0
 20 18  1  0  0  0  0
 22 20  1  0  0  0  0
 23 22  2  0  0  0  0
 24 22  1  0  0  0  0
 24 17  1  0  0  0  0
 25 23  1  0  0  0  0
 26 25  2  0  0  0  0
 26 27  1  0  0  0  0
 27 24  2  0  0  0  0
M  END
>  <MODEL>
1

>  <REMARK>
 VINA RESULT:     -10.1      0.000      0.000
  3 active torsions:
  status: ('A' for Active; 'I' for Inactive)
    1  A    between atoms: C3_3  and  C4_4 
    2  A    between atoms: C4_4  and  C6_6 
    3  A    between atoms: C4_4  and  C7_9 

>  <TORSDO>
F 3

$$$$
../pdbqt/decoy.vina_out.41.pdbqt
 OpenBabel06052021513D

 27 30  0  0  0  0  0  0  0  0999 V2000
  -23.1990   64.0310   26.9810 C   0  0  0  0  0  0  0  0  0  0  0  0
  -22.9740   62.4970   26.8450 C   0  0  0  0  0  0  0  0  0  0  0  0
  -24.6230   64.4500   26.5420 C   0  0  0  0  0  0  0  0  0  0  0  0
  -25.8460   63.8710   26.9540 C   0  0  0  0  0  0  0  0  0  0  0  0
  -25.9950   62.6580   27.8330 C   0  0  0  0  0  0  0  0  0  0  0  0
  -26.8990   64.4760   26.3430 N   0  0  0  0  0  0  0  0  0  0  0  0
  -26.3750   65.3620   25.4750 C   0  0  0  0  0  0  0  0  0  0  0  0
  -28.3180   64.1430   26.5040 C   0  0  0  0  0  0  0  0  0  0  0  0
  -24.9980   65.3660   25.5460 C   0  0  0  0  0  0  0  0  0  0  0  0
  -27.0670   66.1500   24.5460 C   0  0  0  0  0  0  0  0  0  0  0  0
  -24.2450   66.1450   24.6540 C   0  0  0  0  0  0  0  0  0  0  0  0
  -24.9200   66.9530   23.7270 C   0  0  0  0  0  0  0  0  0  0  0  0
  -26.3250   66.9600   23.6760 C   0  0  0  0  0  0  0  0  0  0  0  0
  -23.0170   64.3730   28.4480 C   0  0  0  0  0  0  0  0  0  0  0  0
  -23.8090   65.1580   29.0380 O   0  0  0  0  0  0  0  0  0  0  0  0
  -21.9550   63.8280   29.1620 O   0  0  0  0  0  0  0  0  0  0  0  0
  -22.1410   64.7090   26.0810 C   0  0  0  0  0  0  0  0  0  0  0  0
  -21.5810   64.1500   24.9110 C   0  0  0  0  0  0  0  0  0  0  0  0
  -21.9680   62.8390   24.2770 C   0  0  0  0  0  0  0  0  0  0  0  0
  -20.6010   64.9460   24.4140 N   0  0  0  0  0  0  0  0  0  0  0  0
  -19.8040   64.7090   23.2080 C   0  0  0  0  0  0  0  0  0  0  0  0
  -20.5740   66.0450   25.1910 C   0  0  0  0  0  0  0  0  0  0  0  0
  -19.7770   67.1830   25.0160 C   0  0  0  0  0  0  0  0  0  0  0  0
  -21.4910   65.9490   26.2170 C   0  0  0  0  0  0  0  0  0  0  0  0
  -19.9250   68.2450   25.9170 C   0  0  0  0  0  0  0  0  0  0  0  0
  -20.8670   68.1660   26.9570 C   0  0  0  0  0  0  0  0  0  0  0  0
  -21.6650   67.0220   27.1110 C   0  0  0  0  0  0  0  0  0  0  0  0
  1 14  1  0  0  0  0
  2  1  1  0  0  0  0
  3  4  2  0  0  0  0
  3  1  1  0  0  0  0
  4  5  1  0  0  0  0
  6  8  1  0  0  0  0
  6  4  1  0  0  0  0
  7  9  1  0  0  0  0
  7  6  1  0  0  0  0
  9  3  1  0  0  0  0
 10  7  2  0  0  0  0
 11  9  2  0  0  0  0
 12 11  1  0  0  0  0
 13 12  2  0  0  0  0
 13 10  1  0  0  0  0
 14 15  2  0  0  0  0
 14 16  1  0  0  0  0
 17 24  1  0  0  0  0
 17  1  1  0  0  0  0
 18 17  2  0  0  0  0
 19 18  1  0  0  0  0
 20 18  1  0  0  0  0
 20 22  1  0  0  0  0
 21 20  1  0  0  0  0
 22 24  1  0  0  0  0
 23 22  2  0  0  0  0
 23 25  1  0  0  0  0
 24 27  2  0  0  0  0
 25 26  2  0  0  0  0
 26 27  1  0  0  0  0
M  END
>  <REMARK>
 VINA RESULT:      -9.8      1.843      5.325
  3 active torsions:
  status: ('A' for Active; 'I' for Inactive)
    1  A    between atoms: C3_3  and  C4_4 
    2  A    between atoms: C4_4  and  C6_6 
    3  A    between atoms: C4_4  and  C7_9 

>  <TORSDO>
F 3

$$$$
../pdbqt/decoy.vina_out.41.pdbqt
 OpenBabel06052021513D

 27 30  0  0  0  0  0  0  0  0999 V2000
  -21.4740   65.1330   26.8590 C   0  0  0  0  0  0  0  0  0  0  0  0
  -21.3510   66.5770   27.4280 C   0  0  0  0  0  0  0  0  0  0  0  0
  -20.7030   64.9660   25.5280 C   0  0  0  0  0  0  0  0  0  0  0  0
  -19.7560   65.8570   24.9740 C   0  0  0  0  0  0  0  0  0  0  0  0
  -19.3840   67.2060   25.5310 C   0  0  0  0  0  0  0  0  0  0  0  0
  -19.3030   65.4010   23.7770 N   0  0  0  0  0  0  0  0  0  0  0  0
  -20.0090   64.2880   23.5030 C   0  0  0  0  0  0  0  0  0  0  0  0
  -18.3290   66.0570   22.8980 C   0  0  0  0  0  0  0  0  0  0  0  0
  -20.8850   63.9970   24.5280 C   0  0  0  0  0  0  0  0  0  0  0  0
  -19.9660   63.5220   22.3310 C   0  0  0  0  0  0  0  0  0  0  0  0
  -21.7910   62.9320   24.4040 C   0  0  0  0  0  0  0  0  0  0  0  0
  -21.7520   62.1440   23.2430 C   0  0  0  0  0  0  0  0  0  0  0  0
  -20.8410   62.4340   22.2140 C   0  0  0  0  0  0  0  0  0  0  0  0
  -20.8740   64.2000   27.8940 C   0  0  0  0  0  0  0  0  0  0  0  0
  -20.8620   64.5040   29.1190 O   0  0  0  0  0  0  0  0  0  0  0  0
  -20.3120   62.9910   27.4970 O   0  0  0  0  0  0  0  0  0  0  0  0
  -22.9830   64.8790   26.6400 C   0  0  0  0  0  0  0  0  0  0  0  0
  -23.8170   65.6050   25.7610 C   0  0  0  0  0  0  0  0  0  0  0  0
  -23.3810   66.6940   24.8170 C   0  0  0  0  0  0  0  0  0  0  0  0
  -25.1100   65.2090   25.8820 N   0  0  0  0  0  0  0  0  0  0  0  0
  -26.2580   65.7180   25.1280 C   0  0  0  0  0  0  0  0  0  0  0  0
  -25.1140   64.1890   26.7600 C   0  0  0  0  0  0  0  0  0  0  0  0
  -26.2130   63.4080   27.1410 C   0  0  0  0  0  0  0  0  0  0  0  0
  -23.8470   63.9490   27.2480 C   0  0  0  0  0  0  0  0  0  0  0  0
  -26.0030   62.3590   28.0450 C   0  0  0  0  0  0  0  0  0  0  0  0
  -24.7140   62.0960   28.5380 C   0  0  0  0  0  0  0  0  0  0  0  0
  -23.6220   62.8810   28.1360 C   0  0  0  0  0  0  0  0  0  0  0  0
  1  2  1  0  0  0  0
  1 14  1  0  0  0  0
  3  1  1  0  0  0  0
  4  3  2  0  0  0  0
  4  5  1  0  0  0  0
  6  4  1  0  0  0  0
  7  6  1  0  0  0  0
  7  9  2  0  0  0  0
  8  6  1  0  0  0  0
  9  3  1  0  0  0  0
 10  7  1  0  0  0  0
 11  9  1  0  0  0  0
 12 11  2  0  0  0  0
 13 10  2  0  0  0  0
 13 12  1  0  0  0  0
 14 15  1  0  0  0  0
 16 14  2  0  0  0  0
 17  1  1  0  0  0  0
 17 24  1  0  0  0  0
 18 20  1  0  0  0  0
 18 17  2  0  0  0  0
 19 18  1  0  0  0  0
 20 22  1  0  0  0  0
 21 20  1  0  0  0  0
 22 23  2  0  0  0  0
 22 24  1  0  0  0  0
 23 25  1  0  0  0  0
 24 27  2  0  0  0  0
 25 26  2  0  0  0  0
 27 26  1  0  0  0  0
M  END
>  <REMARK>
 VINA RESULT:      -9.5      2.406      4.894
  3 active torsions:
  status: ('A' for Active; 'I' for Inactive)
    1  A    between atoms: C3_3  and  C4_4 
    2  A    between atoms: C4_4  and  C6_6 
    3  A    between atoms: C4_4  and  C7_9 

>  <TORSDO>
F 3

$$$$
../pdbqt/decoy.vina_out.41.pdbqt
 OpenBabel06052021513D

 27 30  0  0  0  0  0  0  0  0999 V2000
  -23.3100   63.8230   27.3640 C   0  0  0  0  0  0  0  0  0  0  0  0
  -23.9480   62.4820   27.8300 C   0  0  0  0  0  0  0  0  0  0  0  0
  -24.2240   64.5890   26.3780 C   0  0  0  0  0  0  0  0  0  0  0  0
  -23.8450   65.6280   25.4970 C   0  0  0  0  0  0  0  0  0  0  0  0
  -22.4820   66.2630   25.4180 C   0  0  0  0  0  0  0  0  0  0  0  0
  -24.9180   66.0880   24.8000 N   0  0  0  0  0  0  0  0  0  0  0  0
  -25.9920   65.4380   25.2840 C   0  0  0  0  0  0  0  0  0  0  0  0
  -24.9230   67.1680   23.8070 C   0  0  0  0  0  0  0  0  0  0  0  0
  -25.6220   64.5330   26.2580 C   0  0  0  0  0  0  0  0  0  0  0  0
  -27.3350   65.6490   24.9470 C   0  0  0  0  0  0  0  0  0  0  0  0
  -26.5990   63.8180   26.9680 C   0  0  0  0  0  0  0  0  0  0  0  0
  -27.9490   64.0050   26.6340 C   0  0  0  0  0  0  0  0  0  0  0  0
  -28.3160   64.9120   25.6250 C   0  0  0  0  0  0  0  0  0  0  0  0
  -23.1110   64.6700   28.6080 C   0  0  0  0  0  0  0  0  0  0  0  0
  -22.5650   65.8060   28.5440 O   0  0  0  0  0  0  0  0  0  0  0  0
  -23.5220   64.1920   29.8470 O   0  0  0  0  0  0  0  0  0  0  0  0
  -21.9740   63.4560   26.6810 C   0  0  0  0  0  0  0  0  0  0  0  0
  -20.7100   63.4280   27.3120 C   0  0  0  0  0  0  0  0  0  0  0  0
  -20.4420   63.6630   28.7760 C   0  0  0  0  0  0  0  0  0  0  0  0
  -19.7240   63.1770   26.4140 N   0  0  0  0  0  0  0  0  0  0  0  0
  -18.2910   63.0570   26.6940 C   0  0  0  0  0  0  0  0  0  0  0  0
  -20.3320   62.9620   25.2330 C   0  0  0  0  0  0  0  0  0  0  0  0
  -19.7260   62.5870   24.0280 C   0  0  0  0  0  0  0  0  0  0  0  0
  -21.6980   63.1190   25.3420 C   0  0  0  0  0  0  0  0  0  0  0  0
  -20.5420   62.3710   22.9100 C   0  0  0  0  0  0  0  0  0  0  0  0
  -21.9360   62.5130   23.0130 C   0  0  0  0  0  0  0  0  0  0  0  0
  -22.5280   62.8780   24.2320 C   0  0  0  0  0  0  0  0  0  0  0  0
  1  2  1  0  0  0  0
  1 14  1  0  0  0  0
  3  1  1  0  0  0  0
  4  3  2  0  0  0  0
  5  4  1  0  0  0  0
  6  7  1  0  0  0  0
  6  4  1  0  0  0  0
  7  9  1  0  0  0  0
  8  6  1  0  0  0  0
  9  3  1  0  0  0  0
  9 11  2  0  0  0  0
 10  7  2  0  0  0  0
 10 13  1  0  0  0  0
 12 11  1  0  0  0  0
 13 12  2  0  0  0  0
 14 16  1  0  0  0  0
 15 14  2  0  0  0  0
 17 18  2  0  0  0  0
 17  1  1  0  0  0  0
 18 19  1  0  0  0  0
 20 21  1  0  0  0  0
 20 18  1  0  0  0  0
 22 24  1  0  0  0  0
 22 20  1  0  0  0  0
 23 22  2  0  0  0  0
 24 17  1  0  0  0  0
 25 26  2  0  0  0  0
 25 23  1  0  0  0  0
 26 27  1  0  0  0  0
 27 24  2  0  0  0  0
M  END
>  <REMARK>
 VINA RESULT:      -9.5      2.426      5.907
  3 active torsions:
  status: ('A' for Active; 'I' for Inactive)
    1  A    between atoms: C3_3  and  C4_4 
    2  A    between atoms: C4_4  and  C6_6 
    3  A    between atoms: C4_4  and  C7_9 

>  <TORSDO>
F 3

$$$$
../pdbqt/decoy.vina_out.41.pdbqt
 OpenBabel06052021513D

 27 30  0  0  0  0  0  0  0  0999 V2000
  -21.7040   64.9690   26.4250 C   0  0  0  0  0  0  0  0  0  0  0  0
  -21.4900   66.4680   26.7830 C   0  0  0  0  0  0  0  0  0  0  0  0
  -21.0730   64.6030   25.0590 C   0  0  0  0  0  0  0  0  0  0  0  0
  -21.4210   63.5170   24.2240 C   0  0  0  0  0  0  0  0  0  0  0  0
  -22.4180   62.4360   24.5520 C   0  0  0  0  0  0  0  0  0  0  0  0
  -20.6360   63.4870   23.1150 N   0  0  0  0  0  0  0  0  0  0  0  0
  -19.7280   64.4690   23.2670 C   0  0  0  0  0  0  0  0  0  0  0  0
  -20.6860   62.5030   22.0290 C   0  0  0  0  0  0  0  0  0  0  0  0
  -19.9420   65.1600   24.4420 C   0  0  0  0  0  0  0  0  0  0  0  0
  -18.6450   64.7620   22.4270 C   0  0  0  0  0  0  0  0  0  0  0  0
  -19.0470   66.1620   24.8470 C   0  0  0  0  0  0  0  0  0  0  0  0
  -17.9650   66.4800   24.0110 C   0  0  0  0  0  0  0  0  0  0  0  0
  -17.7670   65.7870   22.8050 C   0  0  0  0  0  0  0  0  0  0  0  0
  -21.0260   64.1560   27.5120 C   0  0  0  0  0  0  0  0  0  0  0  0
  -20.9940   64.5610   28.7060 O   0  0  0  0  0  0  0  0  0  0  0  0
  -20.4150   62.9470   27.1960 O   0  0  0  0  0  0  0  0  0  0  0  0
  -23.2320   64.7440   26.3860 C   0  0  0  0  0  0  0  0  0  0  0  0
  -24.1490   65.4760   25.5980 C   0  0  0  0  0  0  0  0  0  0  0  0
  -23.8050   66.5440   24.5930 C   0  0  0  0  0  0  0  0  0  0  0  0
  -25.4260   65.1100   25.8750 N   0  0  0  0  0  0  0  0  0  0  0  0
  -26.6450   65.6330   25.2510 C   0  0  0  0  0  0  0  0  0  0  0  0
  -25.3490   64.1010   26.7620 C   0  0  0  0  0  0  0  0  0  0  0  0
  -26.4110   63.3490   27.2800 C   0  0  0  0  0  0  0  0  0  0  0  0
  -24.0380   63.8410   27.1040 C   0  0  0  0  0  0  0  0  0  0  0  0
  -26.1180   62.3080   28.1690 C   0  0  0  0  0  0  0  0  0  0  0  0
  -24.7860   62.0230   28.5130 C   0  0  0  0  0  0  0  0  0  0  0  0
  -23.7330   62.7800   27.9760 C   0  0  0  0  0  0  0  0  0  0  0  0
  1  2  1  0  0  0  0
  1 14  1  0  0  0  0
  3  1  1  0  0  0  0
  4  5  1  0  0  0  0
  4  3  2  0  0  0  0
  6  7  1  0  0  0  0
  6  4  1  0  0  0  0
  7  9  2  0  0  0  0
  8  6  1  0  0  0  0
  9 11  1  0  0  0  0
  9  3  1  0  0  0  0
 10 13  2  0  0  0  0
 10  7  1  0  0  0  0
 12 11  2  0  0  0  0
 13 12  1  0  0  0  0
 14 15  1  0  0  0  0
 16 14  2  0  0  0  0
 17  1  1  0  0  0  0
 17 24  1  0  0  0  0
 18 20  1  0  0  0  0
 18 17  2  0  0  0  0
 19 18  1  0  0  0  0
 20 22  1  0  0  0  0
 21 20  1  0  0  0  0
 22 24  2  0  0  0  0
 22 23  1  0  0  0  0
 23 25  2  0  0  0  0
 24 27  1  0  0  0  0
 25 26  1  0  0  0  0
 27 26  2  0  0  0  0
M  END
>  <REMARK>
 VINA RESULT:      -9.4      2.613      4.680
  3 active torsions:
  status: ('A' for Active; 'I' for Inactive)
    1  A    between atoms: C3_3  and  C4_4 
    2  A    between atoms: C4_4  and  C6_6 
    3  A    between atoms: C4_4  and  C7_9 

>  <TORSDO>
F 3

$$$$
../pdbqt/decoy.vina_out.41.pdbqt
 OpenBabel06052021513D

 27 30  0  0  0  0  0  0  0  0999 V2000
  -23.1650   64.5370   27.3700 C   0  0  0  0  0  0  0  0  0  0  0  0
  -23.0260   65.4530   28.6200 C   0  0  0  0  0  0  0  0  0  0  0  0
  -22.0390   64.7870   26.3380 C   0  0  0  0  0  0  0  0  0  0  0  0
  -21.1830   65.9100   26.2680 C   0  0  0  0  0  0  0  0  0  0  0  0
  -21.2690   67.1400   27.1330 C   0  0  0  0  0  0  0  0  0  0  0  0
  -20.3310   65.8050   25.2140 N   0  0  0  0  0  0  0  0  0  0  0  0
  -20.6860   64.6900   24.5490 C   0  0  0  0  0  0  0  0  0  0  0  0
  -19.3110   66.7780   24.8080 C   0  0  0  0  0  0  0  0  0  0  0  0
  -21.7310   64.0510   25.1840 C   0  0  0  0  0  0  0  0  0  0  0  0
  -20.1630   64.2210   23.3370 C   0  0  0  0  0  0  0  0  0  0  0  0
  -22.3250   62.9190   24.6040 C   0  0  0  0  0  0  0  0  0  0  0  0
  -21.8040   62.4250   23.3980 C   0  0  0  0  0  0  0  0  0  0  0  0
  -20.7250   63.0690   22.7700 C   0  0  0  0  0  0  0  0  0  0  0  0
  -23.0700   63.1040   27.8620 C   0  0  0  0  0  0  0  0  0  0  0  0
  -23.5510   62.1500   27.1910 O   0  0  0  0  0  0  0  0  0  0  0  0
  -22.4550   62.8260   29.0780 O   0  0  0  0  0  0  0  0  0  0  0  0
  -24.5430   64.8560   26.7470 C   0  0  0  0  0  0  0  0  0  0  0  0
  -25.7890   64.4070   27.2380 C   0  0  0  0  0  0  0  0  0  0  0  0
  -26.0150   63.6140   28.4990 C   0  0  0  0  0  0  0  0  0  0  0  0
  -26.7970   64.7670   26.4040 N   0  0  0  0  0  0  0  0  0  0  0  0
  -28.2260   64.4950   26.5850 C   0  0  0  0  0  0  0  0  0  0  0  0
  -26.2390   65.5070   25.4300 C   0  0  0  0  0  0  0  0  0  0  0  0
  -26.8990   66.1640   24.3840 C   0  0  0  0  0  0  0  0  0  0  0  0
  -24.8710   65.5920   25.5930 C   0  0  0  0  0  0  0  0  0  0  0  0
  -26.1380   66.9230   23.4870 C   0  0  0  0  0  0  0  0  0  0  0  0
  -24.7460   67.0290   23.6520 C   0  0  0  0  0  0  0  0  0  0  0  0
  -24.1020   66.3730   24.7120 C   0  0  0  0  0  0  0  0  0  0  0  0
  1 14  1  0  0  0  0
  1  2  1  0  0  0  0
  3  1  1  0  0  0  0
  4  3  2  0  0  0  0
  4  5  1  0  0  0  0
  6  4  1  0  0  0  0
  7  9  2  0  0  0  0
  7  6  1  0  0  0  0
  8  6  1  0  0  0  0
  9  3  1  0  0  0  0
 10  7  1  0  0  0  0
 11  9  1  0  0  0  0
 12 11  2  0  0  0  0
 13 10  2  0  0  0  0
 13 12  1  0  0  0  0
 14 16  1  0  0  0  0
 15 14  2  0  0  0  0
 17 18  2  0  0  0  0
 17  1  1  0  0  0  0
 18 19  1  0  0  0  0
 20 21  1  0  0  0  0
 20 18  1  0  0  0  0
 22 24  1  0  0  0  0
 22 20  1  0  0  0  0
 23 22  2  0  0  0  0
 24 17  1  0  0  0  0
 25 26  2  0  0  0  0
 25 23  1  0  0  0  0
 26 27  1  0  0  0  0
 27 24  2  0  0  0  0
M  END
>  <REMARK>
 VINA RESULT:      -9.4      1.811      3.242
  3 active torsions:
  status: ('A' for Active; 'I' for Inactive)
    1  A    between atoms: C3_3  and  C4_4 
    2  A    between atoms: C4_4  and  C6_6 
    3  A    between atoms: C4_4  and  C7_9 

>  <TORSDO>
F 3

$$$$
../pdbqt/decoy.vina_out.41.pdbqt
 OpenBabel06052021513D

 27 30  0  0  0  0  0  0  0  0999 V2000
  -22.6690   64.4030   26.0280 C   0  0  0  0  0  0  0  0  0  0  0  0
  -22.3490   64.6900   24.5330 C   0  0  0  0  0  0  0  0  0  0  0  0
  -24.1860   64.2070   26.2700 C   0  0  0  0  0  0  0  0  0  0  0  0
  -25.2390   65.0000   25.7590 C   0  0  0  0  0  0  0  0  0  0  0  0
  -25.0810   66.2620   24.9530 C   0  0  0  0  0  0  0  0  0  0  0  0
  -26.4430   64.5510   26.2020 N   0  0  0  0  0  0  0  0  0  0  0  0
  -26.1810   63.5500   27.0630 C   0  0  0  0  0  0  0  0  0  0  0  0
  -27.7590   65.1230   25.9010 C   0  0  0  0  0  0  0  0  0  0  0  0
  -24.8240   63.3200   27.1520 C   0  0  0  0  0  0  0  0  0  0  0  0
  -27.1000   62.8450   27.8510 C   0  0  0  0  0  0  0  0  0  0  0  0
  -24.3220   62.3840   28.0700 C   0  0  0  0  0  0  0  0  0  0  0  0
  -25.2290   61.6570   28.8560 C   0  0  0  0  0  0  0  0  0  0  0  0
  -26.6120   61.8810   28.7440 C   0  0  0  0  0  0  0  0  0  0  0  0
  -21.9450   63.1200   26.3950 C   0  0  0  0  0  0  0  0  0  0  0  0
  -21.2130   63.0540   27.4200 O   0  0  0  0  0  0  0  0  0  0  0  0
  -22.0730   61.9950   25.5870 O   0  0  0  0  0  0  0  0  0  0  0  0
  -22.1530   65.6210   26.8270 C   0  0  0  0  0  0  0  0  0  0  0  0
  -21.4960   66.7430   26.2750 C   0  0  0  0  0  0  0  0  0  0  0  0
  -21.2540   67.0030   24.8110 C   0  0  0  0  0  0  0  0  0  0  0  0
  -21.0700   67.5840   27.2520 N   0  0  0  0  0  0  0  0  0  0  0  0
  -20.3650   68.8560   27.0700 C   0  0  0  0  0  0  0  0  0  0  0  0
  -21.5110   67.0700   28.4140 C   0  0  0  0  0  0  0  0  0  0  0  0
  -21.3830   67.6340   29.6900 C   0  0  0  0  0  0  0  0  0  0  0  0
  -22.1750   65.8780   28.2100 C   0  0  0  0  0  0  0  0  0  0  0  0
  -21.9480   66.9580   30.7780 C   0  0  0  0  0  0  0  0  0  0  0  0
  -22.6400   65.7510   30.5800 C   0  0  0  0  0  0  0  0  0  0  0  0
  -22.7690   65.2050   29.2930 C   0  0  0  0  0  0  0  0  0  0  0  0
  1  3  1  0  0  0  0
  1 14  1  0  0  0  0
  1 17  1  0  0  0  0
  2  1  1  0  0  0  0
  3  9  1  0  0  0  0
  4  6  1  0  0  0  0
  4  3  2  0  0  0  0
  5  4  1  0  0  0  0
  6  7  1  0  0  0  0
  7  9  2  0  0  0  0
  7 10  1  0  0  0  0
  8  6  1  0  0  0  0
  9 11  1  0  0  0  0
 10 13  2  0  0  0  0
 11 12  2  0  0  0  0
 13 12  1  0  0  0  0
 14 15  1  0  0  0  0
 16 14  2  0  0  0  0
 17 24  1  0  0  0  0
 18 17  2  0  0  0  0
 18 20  1  0  0  0  0
 19 18  1  0  0  0  0
 20 22  1  0  0  0  0
 21 20  1  0  0  0  0
 22 23  1  0  0  0  0
 23 25  2  0  0  0  0
 24 22  2  0  0  0  0
 24 27  1  0  0  0  0
 26 25  1  0  0  0  0
 27 26  2  0  0  0  0
M  END
>  <REMARK>
 VINA RESULT:      -9.2      1.257      6.076
  3 active torsions:
  status: ('A' for Active; 'I' for Inactive)
    1  A    between atoms: C3_3  and  C4_4 
    2  A    between atoms: C4_4  and  C6_6 
    3  A    between atoms: C4_4  and  C7_9 

>  <TORSDO>
F 3

$$$$
../pdbqt/decoy.vina_out.41.pdbqt
 OpenBabel06052021513D

 27 30  0  0  0  0  0  0  0  0999 V2000
  -22.3930   64.3260   26.4640 C   0  0  0  0  0  0  0  0  0  0  0  0
  -22.5500   62.8180   26.8150 C   0  0  0  0  0  0  0  0  0  0  0  0
  -23.6830   64.9150   25.8450 C   0  0  0  0  0  0  0  0  0  0  0  0
  -23.7780   66.0110   24.9570 C   0  0  0  0  0  0  0  0  0  0  0  0
  -22.6370   66.8890   24.5140 C   0  0  0  0  0  0  0  0  0  0  0  0
  -25.0750   66.2690   24.6410 N   0  0  0  0  0  0  0  0  0  0  0  0
  -25.8190   65.4270   25.3820 C   0  0  0  0  0  0  0  0  0  0  0  0
  -25.5700   67.3340   23.7640 C   0  0  0  0  0  0  0  0  0  0  0  0
  -25.0190   64.6020   26.1440 C   0  0  0  0  0  0  0  0  0  0  0  0
  -27.2170   65.3880   25.4750 C   0  0  0  0  0  0  0  0  0  0  0  0
  -25.5920   63.7140   27.0670 C   0  0  0  0  0  0  0  0  0  0  0  0
  -26.9910   63.6490   27.1630 C   0  0  0  0  0  0  0  0  0  0  0  0
  -27.8000   64.4780   26.3670 C   0  0  0  0  0  0  0  0  0  0  0  0
  -22.0970   65.0510   27.7640 C   0  0  0  0  0  0  0  0  0  0  0  0
  -22.3960   66.2670   27.9160 O   0  0  0  0  0  0  0  0  0  0  0  0
  -21.4760   64.3770   28.8100 O   0  0  0  0  0  0  0  0  0  0  0  0
  -21.2240   64.4200   25.4580 C   0  0  0  0  0  0  0  0  0  0  0  0
  -21.1500   63.7380   24.2220 C   0  0  0  0  0  0  0  0  0  0  0  0
  -22.2220   62.8680   23.6200 C   0  0  0  0  0  0  0  0  0  0  0  0
  -19.9480   63.9450   23.6260 N   0  0  0  0  0  0  0  0  0  0  0  0
  -19.5080   63.4170   22.3320 C   0  0  0  0  0  0  0  0  0  0  0  0
  -19.2790   64.8100   24.4090 C   0  0  0  0  0  0  0  0  0  0  0  0
  -18.0250   65.3800   24.1590 C   0  0  0  0  0  0  0  0  0  0  0  0
  -20.0120   65.1300   25.5340 C   0  0  0  0  0  0  0  0  0  0  0  0
  -17.5120   66.2970   25.0850 C   0  0  0  0  0  0  0  0  0  0  0  0
  -18.2550   66.6420   26.2270 C   0  0  0  0  0  0  0  0  0  0  0  0
  -19.5160   66.0700   26.4560 C   0  0  0  0  0  0  0  0  0  0  0  0
  1  2  1  0  0  0  0
  1 14  1  0  0  0  0
  3  9  1  0  0  0  0
  3  1  1  0  0  0  0
  4  3  2  0  0  0  0
  5  4  1  0  0  0  0
  6  4  1  0  0  0  0
  6  7  1  0  0  0  0
  7 10  2  0  0  0  0
  7  9  1  0  0  0  0
  8  6  1  0  0  0  0
  9 11  2  0  0  0  0
 10 13  1  0  0  0  0
 11 12  1  0  0  0  0
 13 12  2  0  0  0  0
 14 15  2  0  0  0  0
 14 16  1  0  0  0  0
 17 24  1  0  0  0  0
 17  1  1  0  0  0  0
 18 17  2  0  0  0  0
 19 18  1  0  0  0  0
 20 18  1  0  0  0  0
 20 22  1  0  0  0  0
 21 20  1  0  0  0  0
 22 24  1  0  0  0  0
 23 22  2  0  0  0  0
 23 25  1  0  0  0  0
 24 27  2  0  0  0  0
 25 26  2  0  0  0  0
 26 27  1  0  0  0  0
M  END
>  <REMARK>
 VINA RESULT:      -9.1      2.562      6.126
  3 active torsions:
  status: ('A' for Active; 'I' for Inactive)
    1  A    between atoms: C3_3  and  C4_4 
    2  A    between atoms: C4_4  and  C6_6 
    3  A    between atoms: C4_4  and  C7_9 

>  <TORSDO>
F 3

$$$$
../pdbqt/decoy.vina_out.41.pdbqt
 OpenBabel06052021513D

 27 30  0  0  0  0  0  0  0  0999 V2000
  -21.4430   65.6680   26.7720 C   0  0  0  0  0  0  0  0  0  0  0  0
  -20.7660   64.9980   28.0030 C   0  0  0  0  0  0  0  0  0  0  0  0
  -22.9380   65.2840   26.6520 C   0  0  0  0  0  0  0  0  0  0  0  0
  -23.6120   64.2570   27.3510 C   0  0  0  0  0  0  0  0  0  0  0  0
  -22.9760   63.2620   28.2860 C   0  0  0  0  0  0  0  0  0  0  0  0
  -24.9150   64.1860   26.9720 N   0  0  0  0  0  0  0  0  0  0  0  0
  -25.0680   65.0780   25.9750 C   0  0  0  0  0  0  0  0  0  0  0  0
  -25.9230   63.2410   27.4620 C   0  0  0  0  0  0  0  0  0  0  0  0
  -23.8900   65.7520   25.7330 C   0  0  0  0  0  0  0  0  0  0  0  0
  -26.2140   65.2940   25.1980 C   0  0  0  0  0  0  0  0  0  0  0  0
  -23.7990   66.6590   24.6650 C   0  0  0  0  0  0  0  0  0  0  0  0
  -24.9400   66.9000   23.8850 C   0  0  0  0  0  0  0  0  0  0  0  0
  -26.1440   66.2250   24.1530 C   0  0  0  0  0  0  0  0  0  0  0  0
  -21.3370   67.1680   26.9750 C   0  0  0  0  0  0  0  0  0  0  0  0
  -21.1290   67.6600   28.1180 O   0  0  0  0  0  0  0  0  0  0  0  0
  -21.4830   68.0280   25.8910 O   0  0  0  0  0  0  0  0  0  0  0  0
  -20.6640   65.1840   25.5290 C   0  0  0  0  0  0  0  0  0  0  0  0
  -19.4070   65.6740   25.1070 C   0  0  0  0  0  0  0  0  0  0  0  0
  -18.5590   66.6870   25.8300 C   0  0  0  0  0  0  0  0  0  0  0  0
  -19.0460   65.1240   23.9200 N   0  0  0  0  0  0  0  0  0  0  0  0
  -17.8080   65.3740   23.1770 C   0  0  0  0  0  0  0  0  0  0  0  0
  -20.0020   64.2300   23.6090 C   0  0  0  0  0  0  0  0  0  0  0  0
  -20.0200   63.3600   22.5120 C   0  0  0  0  0  0  0  0  0  0  0  0
  -21.0070   64.2280   24.5550 C   0  0  0  0  0  0  0  0  0  0  0  0
  -21.0940   62.4700   22.3840 C   0  0  0  0  0  0  0  0  0  0  0  0
  -22.1150   62.4480   23.3490 C   0  0  0  0  0  0  0  0  0  0  0  0
  -22.0750   63.3200   24.4490 C   0  0  0  0  0  0  0  0  0  0  0  0
  1 14  1  0  0  0  0
  1  2  1  0  0  0  0
  3  1  1  0  0  0  0
  3  4  2  0  0  0  0
  4  5  1  0  0  0  0
  6  4  1  0  0  0  0
  6  8  1  0  0  0  0
  7  6  1  0  0  0  0
  9  7  1  0  0  0  0
  9  3  1  0  0  0  0
 10  7  2  0  0  0  0
 11  9  2  0  0  0  0
 12 13  2  0  0  0  0
 12 11  1  0  0  0  0
 13 10  1  0  0  0  0
 14 15  1  0  0  0  0
 16 14  2  0  0  0  0
 17  1  1  0  0  0  0
 18 17  2  0  0  0  0
 18 19  1  0  0  0  0
 20 18  1  0  0  0  0
 21 20  1  0  0  0  0
 22 20  1  0  0  0  0
 22 24  2  0  0  0  0
 23 22  1  0  0  0  0
 24 17  1  0  0  0  0
 25 23  2  0  0  0  0
 25 26  1  0  0  0  0
 26 27  2  0  0  0  0
 27 24  1  0  0  0  0
M  END
>  <REMARK>
 VINA RESULT:      -9.0      2.600      5.667
  3 active torsions:
  status: ('A' for Active; 'I' for Inactive)
    1  A    between atoms: C3_3  and  C4_4 
    2  A    between atoms: C4_4  and  C6_6 
    3  A    between atoms: C4_4  and  C7_9 

>  <TORSDO>
F 3

$$$$
