../pdbqt/decoy.vina_out.61.pdbqt
 OpenBabel06052021513D

 17 19  0  0  0  0  0  0  0  0999 V2000
  -26.3780   61.5420   28.9530 C   0  0  0  0  0  0  0  0  0  0  0  0
  -27.4880   62.3580   28.7070 C   0  0  0  0  0  0  0  0  0  0  0  0
  -27.3750   63.4620   27.8560 C   0  0  0  0  0  0  0  0  0  0  0  0
  -26.1480   63.7540   27.2480 C   0  0  0  0  0  0  0  0  0  0  0  0
  -26.0340   64.8270   26.4200 N   0  0  0  0  0  0  0  0  0  0  0  0
  -24.8560   65.1430   25.8110 C   0  0  0  0  0  0  0  0  0  0  0  0
  -23.7230   64.3520   26.0320 C   0  0  0  0  0  0  0  0  0  0  0  0
  -23.8090   63.2440   26.8780 C   0  0  0  0  0  0  0  0  0  0  0  0
  -25.0260   62.9320   27.4960 C   0  0  0  0  0  0  0  0  0  0  0  0
  -25.1480   61.8270   28.3510 C   0  0  0  0  0  0  0  0  0  0  0  0
  -24.7630   66.2500   24.9640 O   0  0  0  0  0  0  0  0  0  0  0  0
  -25.2490   66.2380   23.6250 C   0  0  0  0  0  0  0  0  0  0  0  0
  -26.5230   67.0740   23.5370 C   0  0  0  0  0  0  0  0  0  0  0  0
  -27.5760   66.4750   24.3730 N   0  0  0  0  0  0  0  0  0  0  0  0
  -28.9630   66.8250   24.0020 C   0  0  0  0  0  0  0  0  0  0  0  0
  -28.4290   65.5010   23.6610 C   0  0  0  0  0  0  0  0  0  0  0  0
  -27.4130   66.2430   25.3810 H   0  0  0  0  0  0  0  0  0  0  0  0
  2  1  1  0  0  0  0
  3  2  2  0  0  0  0
  4  9  2  0  0  0  0
  4  3  1  0  0  0  0
  5  4  1  0  0  0  0
  6  7  1  0  0  0  0
  6  5  2  0  0  0  0
  7  8  2  0  0  0  0
  8  9  1  0  0  0  0
  9 10  1  0  0  0  0
 10  1  2  0  0  0  0
 11  6  1  0  0  0  0
 12 11  1  0  0  0  0
 13 12  1  0  0  0  0
 13 14  1  0  0  0  0
 14 17  1  0  0  0  0
 15 14  1  0  0  0  0
 16 15  1  0  0  0  0
 16 14  1  0  0  0  0
M  END
>  <MODEL>
1

>  <REMARK>
 VINA RESULT:      -7.0      0.000      0.000
  4 active torsions:
  status: ('A' for Active; 'I' for Inactive)
    1  A    between atoms: C5_6  and  O1_7 
    2  A    between atoms: O1_7  and  C6_8 
    3  A    between atoms: C6_8  and  C7_9 
    4  A    between atoms: C7_9  and  N2_10 

>  <TORSDO>
F 4

$$$$
../pdbqt/decoy.vina_out.61.pdbqt
 OpenBabel06052021513D

 17 19  0  0  0  0  0  0  0  0999 V2000
  -25.0900   61.7410   28.8200 C   0  0  0  0  0  0  0  0  0  0  0  0
  -24.2950   62.3160   27.8220 C   0  0  0  0  0  0  0  0  0  0  0  0
  -24.8380   63.2670   26.9520 C   0  0  0  0  0  0  0  0  0  0  0  0
  -26.1790   63.6460   27.0780 C   0  0  0  0  0  0  0  0  0  0  0  0
  -26.7100   64.5710   26.2330 N   0  0  0  0  0  0  0  0  0  0  0  0
  -28.0120   64.9650   26.3240 C   0  0  0  0  0  0  0  0  0  0  0  0
  -28.8390   64.4130   27.3090 C   0  0  0  0  0  0  0  0  0  0  0  0
  -28.3230   63.4610   28.1910 C   0  0  0  0  0  0  0  0  0  0  0  0
  -26.9830   63.0670   28.0850 C   0  0  0  0  0  0  0  0  0  0  0  0
  -26.4320   62.1140   28.9530 C   0  0  0  0  0  0  0  0  0  0  0  0
  -28.5350   65.9170   25.4460 O   0  0  0  0  0  0  0  0  0  0  0  0
  -28.8870   65.6110   24.1000 C   0  0  0  0  0  0  0  0  0  0  0  0
  -27.7740   66.0710   23.1640 C   0  0  0  0  0  0  0  0  0  0  0  0
  -26.7650   66.8320   23.9190 N   0  0  0  0  0  0  0  0  0  0  0  0
  -25.3570   66.4950   23.6220 C   0  0  0  0  0  0  0  0  0  0  0  0
  -25.9390   67.7310   23.0850 C   0  0  0  0  0  0  0  0  0  0  0  0
  -26.9590   67.2000   24.8800 H   0  0  0  0  0  0  0  0  0  0  0  0
  1 10  1  0  0  0  0
  2  1  2  0  0  0  0
  3  4  2  0  0  0  0
  3  2  1  0  0  0  0
  4  9  1  0  0  0  0
  5  6  2  0  0  0  0
  5  4  1  0  0  0  0
  6  7  1  0  0  0  0
  7  8  2  0  0  0  0
  9  8  1  0  0  0  0
  9 10  2  0  0  0  0
 11  6  1  0  0  0  0
 12 11  1  0  0  0  0
 13 14  1  0  0  0  0
 13 12  1  0  0  0  0
 14 17  1  0  0  0  0
 15 14  1  0  0  0  0
 16 15  1  0  0  0  0
 16 14  1  0  0  0  0
M  END
>  <REMARK>
 VINA RESULT:      -7.0      1.387      3.000
  4 active torsions:
  status: ('A' for Active; 'I' for Inactive)
    1  A    between atoms: C5_6  and  O1_7 
    2  A    between atoms: O1_7  and  C6_8 
    3  A    between atoms: C6_8  and  C7_9 
    4  A    between atoms: C7_9  and  N2_10 

>  <TORSDO>
F 4

$$$$
../pdbqt/decoy.vina_out.61.pdbqt
 OpenBabel06052021513D

 17 19  0  0  0  0  0  0  0  0999 V2000
  -26.0170   67.0010   22.8740 C   0  0  0  0  0  0  0  0  0  0  0  0
  -25.0230   66.8450   23.8470 C   0  0  0  0  0  0  0  0  0  0  0  0
  -25.2770   66.0870   24.9950 C   0  0  0  0  0  0  0  0  0  0  0  0
  -26.5260   65.4830   25.1730 C   0  0  0  0  0  0  0  0  0  0  0  0
  -26.7770   64.7450   26.2890 N   0  0  0  0  0  0  0  0  0  0  0  0
  -27.9820   64.1430   26.4970 C   0  0  0  0  0  0  0  0  0  0  0  0
  -29.0010   64.2760   25.5480 C   0  0  0  0  0  0  0  0  0  0  0  0
  -28.7740   65.0280   24.3930 C   0  0  0  0  0  0  0  0  0  0  0  0
  -27.5310   65.6410   24.1920 C   0  0  0  0  0  0  0  0  0  0  0  0
  -27.2690   66.4020   23.0440 C   0  0  0  0  0  0  0  0  0  0  0  0
  -28.2150   63.3900   27.6500 O   0  0  0  0  0  0  0  0  0  0  0  0
  -27.3050   63.3570   28.7460 C   0  0  0  0  0  0  0  0  0  0  0  0
  -26.7540   61.9440   28.9090 C   0  0  0  0  0  0  0  0  0  0  0  0
  -25.3050   61.9960   29.1620 N   0  0  0  0  0  0  0  0  0  0  0  0
  -24.4500   62.1250   27.9630 C   0  0  0  0  0  0  0  0  0  0  0  0
  -24.6800   63.2920   28.8240 C   0  0  0  0  0  0  0  0  0  0  0  0
  -24.8730   61.5160   29.9860 H   0  0  0  0  0  0  0  0  0  0  0  0
  1 10  2  0  0  0  0
  1  2  1  0  0  0  0
  2  3  2  0  0  0  0
  3  4  1  0  0  0  0
  4  5  1  0  0  0  0
  5  6  2  0  0  0  0
  6 11  1  0  0  0  0
  7  6  1  0  0  0  0
  8  7  2  0  0  0  0
  9  8  1  0  0  0  0
  9  4  2  0  0  0  0
 10  9  1  0  0  0  0
 11 12  1  0  0  0  0
 12 13  1  0  0  0  0
 13 14  1  0  0  0  0
 14 17  1  0  0  0  0
 15 16  1  0  0  0  0
 15 14  1  0  0  0  0
 16 14  1  0  0  0  0
M  END
>  <REMARK>
 VINA RESULT:      -6.9      2.021      5.963
  4 active torsions:
  status: ('A' for Active; 'I' for Inactive)
    1  A    between atoms: C5_6  and  O1_7 
    2  A    between atoms: O1_7  and  C6_8 
    3  A    between atoms: C6_8  and  C7_9 
    4  A    between atoms: C7_9  and  N2_10 

>  <TORSDO>
F 4

$$$$
../pdbqt/decoy.vina_out.61.pdbqt
 OpenBabel06052021513D

 17 19  0  0  0  0  0  0  0  0999 V2000
  -25.6230   66.9980   23.2500 C   0  0  0  0  0  0  0  0  0  0  0  0
  -24.6500   66.6810   24.2040 C   0  0  0  0  0  0  0  0  0  0  0  0
  -24.9760   65.8730   25.2990 C   0  0  0  0  0  0  0  0  0  0  0  0
  -26.2780   65.3810   25.4410 C   0  0  0  0  0  0  0  0  0  0  0  0
  -26.6000   64.5950   26.5050 N   0  0  0  0  0  0  0  0  0  0  0  0
  -27.8560   64.0970   26.6780 C   0  0  0  0  0  0  0  0  0  0  0  0
  -28.8570   64.3920   25.7450 C   0  0  0  0  0  0  0  0  0  0  0  0
  -28.5580   65.1970   24.6430 C   0  0  0  0  0  0  0  0  0  0  0  0
  -27.2620   65.7000   24.4790 C   0  0  0  0  0  0  0  0  0  0  0  0
  -26.9270   66.5110   23.3840 C   0  0  0  0  0  0  0  0  0  0  0  0
  -28.1620   63.2920   27.7780 O   0  0  0  0  0  0  0  0  0  0  0  0
  -27.1720   62.5590   28.4940 C   0  0  0  0  0  0  0  0  0  0  0  0
  -26.9360   63.2150   29.8510 C   0  0  0  0  0  0  0  0  0  0  0  0
  -25.9990   64.3410   29.7090 N   0  0  0  0  0  0  0  0  0  0  0  0
  -24.9930   64.4750   30.7840 C   0  0  0  0  0  0  0  0  0  0  0  0
  -24.5970   63.9330   29.4790 C   0  0  0  0  0  0  0  0  0  0  0  0
  -26.2720   65.2250   29.2210 H   0  0  0  0  0  0  0  0  0  0  0  0
  1 10  2  0  0  0  0
  1  2  1  0  0  0  0
  2  3  2  0  0  0  0
  3  4  1  0  0  0  0
  4  5  1  0  0  0  0
  5  6  2  0  0  0  0
  6 11  1  0  0  0  0
  7  6  1  0  0  0  0
  8  7  2  0  0  0  0
  9  8  1  0  0  0  0
  9  4  2  0  0  0  0
 10  9  1  0  0  0  0
 11 12  1  0  0  0  0
 12 13  1  0  0  0  0
 14 13  1  0  0  0  0
 14 15  1  0  0  0  0
 16 14  1  0  0  0  0
 16 15  1  0  0  0  0
 17 14  1  0  0  0  0
M  END
>  <REMARK>
 VINA RESULT:      -6.9      2.186      5.876
  4 active torsions:
  status: ('A' for Active; 'I' for Inactive)
    1  A    between atoms: C5_6  and  O1_7 
    2  A    between atoms: O1_7  and  C6_8 
    3  A    between atoms: C6_8  and  C7_9 
    4  A    between atoms: C7_9  and  N2_10 

>  <TORSDO>
F 4

$$$$
../pdbqt/decoy.vina_out.61.pdbqt
 OpenBabel06052021513D

 17 19  0  0  0  0  0  0  0  0999 V2000
  -29.2010   64.6510   24.7990 C   0  0  0  0  0  0  0  0  0  0  0  0
  -28.5260   64.1940   25.9370 C   0  0  0  0  0  0  0  0  0  0  0  0
  -27.1960   64.5630   26.1620 C   0  0  0  0  0  0  0  0  0  0  0  0
  -26.5360   65.3910   25.2480 C   0  0  0  0  0  0  0  0  0  0  0  0
  -25.2420   65.7530   25.4620 N   0  0  0  0  0  0  0  0  0  0  0  0
  -24.5660   66.5570   24.5940 C   0  0  0  0  0  0  0  0  0  0  0  0
  -25.2060   67.0340   23.4450 C   0  0  0  0  0  0  0  0  0  0  0  0
  -26.5340   66.6800   23.1970 C   0  0  0  0  0  0  0  0  0  0  0  0
  -27.2150   65.8530   24.0980 C   0  0  0  0  0  0  0  0  0  0  0  0
  -28.5490   65.4780   23.8800 C   0  0  0  0  0  0  0  0  0  0  0  0
  -23.2380   66.9150   24.8370 O   0  0  0  0  0  0  0  0  0  0  0  0
  -22.3700   66.1420   25.6610 C   0  0  0  0  0  0  0  0  0  0  0  0
  -21.6830   65.0740   24.8160 C   0  0  0  0  0  0  0  0  0  0  0  0
  -22.5240   63.8670   24.7500 N   0  0  0  0  0  0  0  0  0  0  0  0
  -22.1250   62.8650   23.7390 C   0  0  0  0  0  0  0  0  0  0  0  0
  -21.8310   62.6270   25.1580 C   0  0  0  0  0  0  0  0  0  0  0  0
  -23.5400   63.8910   24.9990 H   0  0  0  0  0  0  0  0  0  0  0  0
  1  2  2  0  0  0  0
  2  3  1  0  0  0  0
  4  5  1  0  0  0  0
  4  3  2  0  0  0  0
  6 11  1  0  0  0  0
  6  5  2  0  0  0  0
  7  6  1  0  0  0  0
  8  7  2  0  0  0  0
  8  9  1  0  0  0  0
  9  4  1  0  0  0  0
 10  9  2  0  0  0  0
 10  1  1  0  0  0  0
 11 12  1  0  0  0  0
 13 12  1  0  0  0  0
 14 13  1  0  0  0  0
 14 17  1  0  0  0  0
 14 16  1  0  0  0  0
 15 14  1  0  0  0  0
 15 16  1  0  0  0  0
M  END
>  <REMARK>
 VINA RESULT:      -6.9      2.406      4.847
  4 active torsions:
  status: ('A' for Active; 'I' for Inactive)
    1  A    between atoms: C5_6  and  O1_7 
    2  A    between atoms: O1_7  and  C6_8 
    3  A    between atoms: C6_8  and  C7_9 
    4  A    between atoms: C7_9  and  N2_10 

>  <TORSDO>
F 4

$$$$
../pdbqt/decoy.vina_out.61.pdbqt
 OpenBabel06052021513D

 17 19  0  0  0  0  0  0  0  0999 V2000
  -29.2020   65.1080   24.3450 C   0  0  0  0  0  0  0  0  0  0  0  0
  -28.8590   64.4730   25.5440 C   0  0  0  0  0  0  0  0  0  0  0  0
  -27.5570   64.5720   26.0450 C   0  0  0  0  0  0  0  0  0  0  0  0
  -26.5930   65.3080   25.3460 C   0  0  0  0  0  0  0  0  0  0  0  0
  -25.3250   65.4080   25.8300 N   0  0  0  0  0  0  0  0  0  0  0  0
  -24.3600   66.1150   25.1780 C   0  0  0  0  0  0  0  0  0  0  0  0
  -24.6640   66.7640   23.9760 C   0  0  0  0  0  0  0  0  0  0  0  0
  -25.9560   66.6800   23.4540 C   0  0  0  0  0  0  0  0  0  0  0  0
  -26.9380   65.9500   24.1350 C   0  0  0  0  0  0  0  0  0  0  0  0
  -28.2460   65.8450   23.6400 C   0  0  0  0  0  0  0  0  0  0  0  0
  -23.0650   66.2030   25.6950 O   0  0  0  0  0  0  0  0  0  0  0  0
  -22.0070   66.8680   25.0130 C   0  0  0  0  0  0  0  0  0  0  0  0
  -21.4000   67.9300   25.9250 C   0  0  0  0  0  0  0  0  0  0  0  0
  -20.1730   68.4710   25.3200 N   0  0  0  0  0  0  0  0  0  0  0  0
  -19.4120   69.4220   26.1580 C   0  0  0  0  0  0  0  0  0  0  0  0
  -18.9290   68.0460   25.9950 C   0  0  0  0  0  0  0  0  0  0  0  0
  -20.0770   68.5910   24.2840 H   0  0  0  0  0  0  0  0  0  0  0  0
  1  2  2  0  0  0  0
  2  3  1  0  0  0  0
  4  5  1  0  0  0  0
  4  3  2  0  0  0  0
  6 11  1  0  0  0  0
  6  5  2  0  0  0  0
  7  6  1  0  0  0  0
  8  7  2  0  0  0  0
  8  9  1  0  0  0  0
  9  4  1  0  0  0  0
 10  9  2  0  0  0  0
 10  1  1  0  0  0  0
 12 11  1  0  0  0  0
 12 13  1  0  0  0  0
 14 13  1  0  0  0  0
 14 16  1  0  0  0  0
 14 15  1  0  0  0  0
 16 15  1  0  0  0  0
 17 14  1  0  0  0  0
M  END
>  <REMARK>
 VINA RESULT:      -6.8      3.364      5.570
  4 active torsions:
  status: ('A' for Active; 'I' for Inactive)
    1  A    between atoms: C5_6  and  O1_7 
    2  A    between atoms: O1_7  and  C6_8 
    3  A    between atoms: C6_8  and  C7_9 
    4  A    between atoms: C7_9  and  N2_10 

>  <TORSDO>
F 4

$$$$
../pdbqt/decoy.vina_out.61.pdbqt
 OpenBabel06052021513D

 17 19  0  0  0  0  0  0  0  0999 V2000
  -28.8640   64.8880   25.1220 C   0  0  0  0  0  0  0  0  0  0  0  0
  -28.7480   65.6660   23.9650 C   0  0  0  0  0  0  0  0  0  0  0  0
  -27.5120   66.2110   23.6060 C   0  0  0  0  0  0  0  0  0  0  0  0
  -26.3860   65.9800   24.4050 C   0  0  0  0  0  0  0  0  0  0  0  0
  -25.1810   66.5090   24.0590 N   0  0  0  0  0  0  0  0  0  0  0  0
  -24.0640   66.3060   24.8120 C   0  0  0  0  0  0  0  0  0  0  0  0
  -24.1390   65.5340   25.9770 C   0  0  0  0  0  0  0  0  0  0  0  0
  -25.3620   64.9780   26.3580 C   0  0  0  0  0  0  0  0  0  0  0  0
  -26.5020   65.1950   25.5740 C   0  0  0  0  0  0  0  0  0  0  0  0
  -27.7450   64.6520   25.9270 C   0  0  0  0  0  0  0  0  0  0  0  0
  -22.8370   66.8600   24.4360 O   0  0  0  0  0  0  0  0  0  0  0  0
  -21.6900   66.8340   25.2790 C   0  0  0  0  0  0  0  0  0  0  0  0
  -21.3520   68.2540   25.7240 C   0  0  0  0  0  0  0  0  0  0  0  0
  -19.9490   68.5610   25.4040 N   0  0  0  0  0  0  0  0  0  0  0  0
  -19.2840   69.5260   26.3060 C   0  0  0  0  0  0  0  0  0  0  0  0
  -18.9830   68.0930   26.4210 C   0  0  0  0  0  0  0  0  0  0  0  0
  -19.5880   68.5230   24.4220 H   0  0  0  0  0  0  0  0  0  0  0  0
  1 10  2  0  0  0  0
  2  1  1  0  0  0  0
  3  2  2  0  0  0  0
  3  4  1  0  0  0  0
  4  9  2  0  0  0  0
  5  4  1  0  0  0  0
  5  6  2  0  0  0  0
  6  7  1  0  0  0  0
  7  8  2  0  0  0  0
  9 10  1  0  0  0  0
  9  8  1  0  0  0  0
 11  6  1  0  0  0  0
 11 12  1  0  0  0  0
 12 13  1  0  0  0  0
 14 13  1  0  0  0  0
 14 15  1  0  0  0  0
 14 16  1  0  0  0  0
 15 16  1  0  0  0  0
 17 14  1  0  0  0  0
M  END
>  <REMARK>
 VINA RESULT:      -6.7      3.494      5.496
  4 active torsions:
  status: ('A' for Active; 'I' for Inactive)
    1  A    between atoms: C5_6  and  O1_7 
    2  A    between atoms: O1_7  and  C6_8 
    3  A    between atoms: C6_8  and  C7_9 
    4  A    between atoms: C7_9  and  N2_10 

>  <TORSDO>
F 4

$$$$
../pdbqt/decoy.vina_out.61.pdbqt
 OpenBabel06052021513D

 17 19  0  0  0  0  0  0  0  0999 V2000
  -27.1410   62.1660   28.6140 C   0  0  0  0  0  0  0  0  0  0  0  0
  -25.8540   61.6220   28.6910 C   0  0  0  0  0  0  0  0  0  0  0  0
  -24.8130   62.1720   27.9360 C   0  0  0  0  0  0  0  0  0  0  0  0
  -25.0570   63.2680   27.1010 C   0  0  0  0  0  0  0  0  0  0  0  0
  -24.0460   63.8050   26.3640 N   0  0  0  0  0  0  0  0  0  0  0  0
  -24.2460   64.8710   25.5400 C   0  0  0  0  0  0  0  0  0  0  0  0
  -25.5180   65.4430   25.4350 C   0  0  0  0  0  0  0  0  0  0  0  0
  -26.5760   64.9130   26.1780 C   0  0  0  0  0  0  0  0  0  0  0  0
  -26.3560   63.8180   27.0210 C   0  0  0  0  0  0  0  0  0  0  0  0
  -27.3950   63.2610   27.7810 C   0  0  0  0  0  0  0  0  0  0  0  0
  -23.1920   65.4060   24.7940 O   0  0  0  0  0  0  0  0  0  0  0  0
  -21.8540   65.4600   25.2810 C   0  0  0  0  0  0  0  0  0  0  0  0
  -21.0350   64.3390   24.6480 C   0  0  0  0  0  0  0  0  0  0  0  0
  -21.0460   63.1550   25.5220 N   0  0  0  0  0  0  0  0  0  0  0  0
  -21.3720   61.8750   24.8590 C   0  0  0  0  0  0  0  0  0  0  0  0
  -19.9810   62.1740   25.2210 C   0  0  0  0  0  0  0  0  0  0  0  0
  -21.2890   63.2230   26.5380 H   0  0  0  0  0  0  0  0  0  0  0  0
  1  2  1  0  0  0  0
  3  2  2  0  0  0  0
  4  3  1  0  0  0  0
  5  4  1  0  0  0  0
  6  5  2  0  0  0  0
  7  6  1  0  0  0  0
  7  8  2  0  0  0  0
  8  9  1  0  0  0  0
  9  4  2  0  0  0  0
  9 10  1  0  0  0  0
 10  1  2  0  0  0  0
 11 12  1  0  0  0  0
 11  6  1  0  0  0  0
 13 12  1  0  0  0  0
 13 14  1  0  0  0  0
 14 17  1  0  0  0  0
 15 16  1  0  0  0  0
 15 14  1  0  0  0  0
 16 14  1  0  0  0  0
M  END
>  <REMARK>
 VINA RESULT:      -6.6      2.329      4.507
  4 active torsions:
  status: ('A' for Active; 'I' for Inactive)
    1  A    between atoms: C5_6  and  O1_7 
    2  A    between atoms: O1_7  and  C6_8 
    3  A    between atoms: C6_8  and  C7_9 
    4  A    between atoms: C7_9  and  N2_10 

>  <TORSDO>
F 4

$$$$
../pdbqt/decoy.vina_out.61.pdbqt
 OpenBabel06052021513D

 17 19  0  0  0  0  0  0  0  0999 V2000
  -28.4680   66.0510   23.6890 C   0  0  0  0  0  0  0  0  0  0  0  0
  -29.2930   65.1370   24.3540 C   0  0  0  0  0  0  0  0  0  0  0  0
  -28.7960   64.3980   25.4320 C   0  0  0  0  0  0  0  0  0  0  0  0
  -27.4710   64.5710   25.8480 C   0  0  0  0  0  0  0  0  0  0  0  0
  -26.9840   63.8530   26.8970 N   0  0  0  0  0  0  0  0  0  0  0  0
  -25.7000   63.9940   27.3300 C   0  0  0  0  0  0  0  0  0  0  0  0
  -24.8440   64.8980   26.6910 C   0  0  0  0  0  0  0  0  0  0  0  0
  -25.3150   65.6480   25.6110 C   0  0  0  0  0  0  0  0  0  0  0  0
  -26.6370   65.4930   25.1770 C   0  0  0  0  0  0  0  0  0  0  0  0
  -27.1430   66.2300   24.0970 C   0  0  0  0  0  0  0  0  0  0  0  0
  -25.2230   63.2460   28.4100 O   0  0  0  0  0  0  0  0  0  0  0  0
  -25.7800   61.9890   28.7820 C   0  0  0  0  0  0  0  0  0  0  0  0
  -26.6010   62.1530   30.0570 C   0  0  0  0  0  0  0  0  0  0  0  0
  -25.9320   63.0960   30.9680 N   0  0  0  0  0  0  0  0  0  0  0  0
  -26.7770   64.1950   31.4830 C   0  0  0  0  0  0  0  0  0  0  0  0
  -26.4440   63.0610   32.3550 C   0  0  0  0  0  0  0  0  0  0  0  0
  -24.9070   63.2980   30.8960 H   0  0  0  0  0  0  0  0  0  0  0  0
  1 10  2  0  0  0  0
  1  2  1  0  0  0  0
  2  3  2  0  0  0  0
  3  4  1  0  0  0  0
  4  5  1  0  0  0  0
  5  6  2  0  0  0  0
  6 11  1  0  0  0  0
  7  6  1  0  0  0  0
  8  7  2  0  0  0  0
  9  8  1  0  0  0  0
  9  4  2  0  0  0  0
 10  9  1  0  0  0  0
 11 12  1  0  0  0  0
 12 13  1  0  0  0  0
 13 14  1  0  0  0  0
 14 15  1  0  0  0  0
 14 16  1  0  0  0  0
 15 16  1  0  0  0  0
 17 14  1  0  0  0  0
M  END
>  <REMARK>
 VINA RESULT:      -6.5      2.396      5.663
  4 active torsions:
  status: ('A' for Active; 'I' for Inactive)
    1  A    between atoms: C5_6  and  O1_7 
    2  A    between atoms: O1_7  and  C6_8 
    3  A    between atoms: C6_8  and  C7_9 
    4  A    between atoms: C7_9  and  N2_10 

>  <TORSDO>
F 4

$$$$
