../pdbqt/decoy.vina_out.71.pdbqt
 OpenBabel06052021513D

 14 15  0  0  0  0  0  0  0  0999 V2000
  -22.7000   66.7020   24.8480 C   0  0  0  0  0  0  0  0  0  0  0  0
  -24.1540   66.3490   24.8480 C   0  0  0  0  0  0  0  0  0  0  0  0
  -25.0190   66.8450   23.8710 C   0  0  0  0  0  0  0  0  0  0  0  0
  -26.3710   66.4980   23.8970 C   0  0  0  0  0  0  0  0  0  0  0  0
  -27.1850   67.0220   22.8990 O   0  0  0  0  0  0  0  0  0  0  0  0
  -26.8720   65.6410   24.9130 C   0  0  0  0  0  0  0  0  0  0  0  0
  -28.2380   65.2390   25.0090 C   0  0  0  0  0  0  0  0  0  0  0  0
  -29.3010   65.6850   24.0370 C   0  0  0  0  0  0  0  0  0  0  0  0
  -28.6290   64.3860   26.0550 C   0  0  0  0  0  0  0  0  0  0  0  0
  -27.7110   63.9300   26.9950 C   0  0  0  0  0  0  0  0  0  0  0  0
  -26.3680   64.3110   26.9200 C   0  0  0  0  0  0  0  0  0  0  0  0
  -25.3900   63.8050   27.9470 C   0  0  0  0  0  0  0  0  0  0  0  0
  -25.9450   65.1630   25.8840 C   0  0  0  0  0  0  0  0  0  0  0  0
  -24.6360   65.5310   25.8150 N   0  0  0  0  0  0  0  0  0  0  0  0
  2  1  1  0  0  0  0
  2 14  2  0  0  0  0
  3  4  2  0  0  0  0
  3  2  1  0  0  0  0
  4  6  1  0  0  0  0
  5  4  1  0  0  0  0
  6  7  2  0  0  0  0
  6 13  1  0  0  0  0
  7  9  1  0  0  0  0
  8  7  1  0  0  0  0
  9 10  2  0  0  0  0
 11 10  1  0  0  0  0
 11 12  1  0  0  0  0
 13 11  2  0  0  0  0
 14 13  1  0  0  0  0
M  END
>  <MODEL>
1

>  <REMARK>
 VINA RESULT:      -8.4      0.000      0.000
  0 active torsions:
  status: ('A' for Active; 'I' for Inactive)

>  <TORSDO>
F 0

$$$$
../pdbqt/decoy.vina_out.71.pdbqt
 OpenBabel06052021513D

 14 15  0  0  0  0  0  0  0  0999 V2000
  -24.7850   63.0170   28.2100 C   0  0  0  0  0  0  0  0  0  0  0  0
  -25.5230   63.8380   27.1980 C   0  0  0  0  0  0  0  0  0  0  0  0
  -26.9090   63.7430   27.0620 C   0  0  0  0  0  0  0  0  0  0  0  0
  -27.5700   64.5210   26.1100 C   0  0  0  0  0  0  0  0  0  0  0  0
  -28.9500   64.3850   26.0190 O   0  0  0  0  0  0  0  0  0  0  0  0
  -26.8380   65.4090   25.2780 C   0  0  0  0  0  0  0  0  0  0  0  0
  -27.4370   66.2380   24.2820 C   0  0  0  0  0  0  0  0  0  0  0  0
  -28.9200   66.2570   24.0060 C   0  0  0  0  0  0  0  0  0  0  0  0
  -26.6210   67.0830   23.5110 C   0  0  0  0  0  0  0  0  0  0  0  0
  -25.2440   67.1260   23.7020 C   0  0  0  0  0  0  0  0  0  0  0  0
  -24.6360   66.3230   24.6720 C   0  0  0  0  0  0  0  0  0  0  0  0
  -23.1440   66.3840   24.8630 C   0  0  0  0  0  0  0  0  0  0  0  0
  -25.4270   65.4660   25.4600 C   0  0  0  0  0  0  0  0  0  0  0  0
  -24.8290   64.6870   26.4030 N   0  0  0  0  0  0  0  0  0  0  0  0
  2  1  1  0  0  0  0
  3  2  1  0  0  0  0
  4  3  2  0  0  0  0
  5  4  1  0  0  0  0
  6 13  1  0  0  0  0
  6  4  1  0  0  0  0
  7  6  2  0  0  0  0
  8  7  1  0  0  0  0
  9 10  2  0  0  0  0
  9  7  1  0  0  0  0
 10 11  1  0  0  0  0
 11 12  1  0  0  0  0
 11 13  2  0  0  0  0
 13 14  1  0  0  0  0
 14  2  2  0  0  0  0
M  END
>  <REMARK>
 VINA RESULT:      -7.9      1.426      3.576
  0 active torsions:
  status: ('A' for Active; 'I' for Inactive)

>  <TORSDO>
F 0

$$$$
../pdbqt/decoy.vina_out.71.pdbqt
 OpenBabel06052021513D

 14 15  0  0  0  0  0  0  0  0999 V2000
  -27.8480   63.1020   28.0150 C   0  0  0  0  0  0  0  0  0  0  0  0
  -26.9660   63.9550   27.1580 C   0  0  0  0  0  0  0  0  0  0  0  0
  -25.5930   64.0390   27.3910 C   0  0  0  0  0  0  0  0  0  0  0  0
  -24.7960   64.8440   26.5760 C   0  0  0  0  0  0  0  0  0  0  0  0
  -23.4350   64.8890   26.8550 O   0  0  0  0  0  0  0  0  0  0  0  0
  -25.3760   65.5790   25.5080 C   0  0  0  0  0  0  0  0  0  0  0  0
  -24.6320   66.4230   24.6290 C   0  0  0  0  0  0  0  0  0  0  0  0
  -23.1420   66.6250   24.7440 C   0  0  0  0  0  0  0  0  0  0  0  0
  -25.3050   67.1070   23.6030 C   0  0  0  0  0  0  0  0  0  0  0  0
  -26.6790   66.9750   23.4290 C   0  0  0  0  0  0  0  0  0  0  0  0
  -27.4270   66.1540   24.2780 C   0  0  0  0  0  0  0  0  0  0  0  0
  -28.9130   66.0260   24.0730 C   0  0  0  0  0  0  0  0  0  0  0  0
  -26.7820   65.4570   25.3150 C   0  0  0  0  0  0  0  0  0  0  0  0
  -27.5160   64.6580   26.1380 N   0  0  0  0  0  0  0  0  0  0  0  0
  2  3  1  0  0  0  0
  2  1  1  0  0  0  0
  4  5  1  0  0  0  0
  4  3  2  0  0  0  0
  6  4  1  0  0  0  0
  7  8  1  0  0  0  0
  7  6  2  0  0  0  0
  9  7  1  0  0  0  0
 10  9  2  0  0  0  0
 10 11  1  0  0  0  0
 11 13  2  0  0  0  0
 12 11  1  0  0  0  0
 13  6  1  0  0  0  0
 13 14  1  0  0  0  0
 14  2  2  0  0  0  0
M  END
>  <REMARK>
 VINA RESULT:      -7.9      1.954      4.581
  0 active torsions:
  status: ('A' for Active; 'I' for Inactive)

>  <TORSDO>
F 0

$$$$
../pdbqt/decoy.vina_out.71.pdbqt
 OpenBabel06052021513D

 14 15  0  0  0  0  0  0  0  0999 V2000
  -29.4350   65.7240   24.0020 C   0  0  0  0  0  0  0  0  0  0  0  0
  -27.9780   65.8090   24.3310 C   0  0  0  0  0  0  0  0  0  0  0  0
  -27.0990   66.5510   23.5400 C   0  0  0  0  0  0  0  0  0  0  0  0
  -25.7450   66.6120   23.8710 C   0  0  0  0  0  0  0  0  0  0  0  0
  -24.9170   67.3650   23.0470 O   0  0  0  0  0  0  0  0  0  0  0  0
  -25.2550   65.9220   25.0120 C   0  0  0  0  0  0  0  0  0  0  0  0
  -23.8870   65.9330   25.4200 C   0  0  0  0  0  0  0  0  0  0  0  0
  -22.8100   66.6830   24.6760 C   0  0  0  0  0  0  0  0  0  0  0  0
  -23.5080   65.2160   26.5670 C   0  0  0  0  0  0  0  0  0  0  0  0
  -24.4390   64.4980   27.3090 C   0  0  0  0  0  0  0  0  0  0  0  0
  -25.7840   64.4730   26.9290 C   0  0  0  0  0  0  0  0  0  0  0  0
  -26.7770   63.6890   27.7460 C   0  0  0  0  0  0  0  0  0  0  0  0
  -26.1950   65.1810   25.7850 C   0  0  0  0  0  0  0  0  0  0  0  0
  -27.5060   65.1530   25.4190 N   0  0  0  0  0  0  0  0  0  0  0  0
  1  2  1  0  0  0  0
  2 14  2  0  0  0  0
  3  4  2  0  0  0  0
  3  2  1  0  0  0  0
  4  6  1  0  0  0  0
  5  4  1  0  0  0  0
  6  7  2  0  0  0  0
  6 13  1  0  0  0  0
  7  9  1  0  0  0  0
  8  7  1  0  0  0  0
  9 10  2  0  0  0  0
 11 10  1  0  0  0  0
 11 12  1  0  0  0  0
 13 11  2  0  0  0  0
 14 13  1  0  0  0  0
M  END
>  <REMARK>
 VINA RESULT:      -7.8      1.382      3.660
  0 active torsions:
  status: ('A' for Active; 'I' for Inactive)

>  <TORSDO>
F 0

$$$$
../pdbqt/decoy.vina_out.71.pdbqt
 OpenBabel06052021513D

 14 15  0  0  0  0  0  0  0  0999 V2000
  -26.0060   67.5490   23.3040 C   0  0  0  0  0  0  0  0  0  0  0  0
  -25.5780   66.4790   24.2600 C   0  0  0  0  0  0  0  0  0  0  0  0
  -24.2370   66.1110   24.3790 C   0  0  0  0  0  0  0  0  0  0  0  0
  -23.8670   65.1090   25.2790 C   0  0  0  0  0  0  0  0  0  0  0  0
  -22.5180   64.7840   25.3550 O   0  0  0  0  0  0  0  0  0  0  0  0
  -24.8500   64.4620   26.0730 C   0  0  0  0  0  0  0  0  0  0  0  0
  -24.5560   63.4310   27.0150 C   0  0  0  0  0  0  0  0  0  0  0  0
  -23.1610   62.9150   27.2660 C   0  0  0  0  0  0  0  0  0  0  0  0
  -25.6040   62.8560   27.7520 C   0  0  0  0  0  0  0  0  0  0  0  0
  -26.9200   63.2730   27.5810 C   0  0  0  0  0  0  0  0  0  0  0  0
  -27.2320   64.2820   26.6640 C   0  0  0  0  0  0  0  0  0  0  0  0
  -28.6620   64.7200   26.4940 C   0  0  0  0  0  0  0  0  0  0  0  0
  -26.2030   64.8770   25.9110 C   0  0  0  0  0  0  0  0  0  0  0  0
  -26.5120   65.8590   25.0200 N   0  0  0  0  0  0  0  0  0  0  0  0
  1  2  1  0  0  0  0
  2  3  2  0  0  0  0
  2 14  1  0  0  0  0
  3  4  1  0  0  0  0
  4  5  1  0  0  0  0
  4  6  2  0  0  0  0
  6  7  1  0  0  0  0
  7  8  1  0  0  0  0
  7  9  2  0  0  0  0
 10  9  1  0  0  0  0
 11 10  2  0  0  0  0
 12 11  1  0  0  0  0
 13  6  1  0  0  0  0
 13 11  1  0  0  0  0
 14 13  2  0  0  0  0
M  END
>  <REMARK>
 VINA RESULT:      -7.5      2.008      3.575
  0 active torsions:
  status: ('A' for Active; 'I' for Inactive)

>  <TORSDO>
F 0

$$$$
../pdbqt/decoy.vina_out.71.pdbqt
 OpenBabel06052021513D

 14 15  0  0  0  0  0  0  0  0999 V2000
  -25.1150   66.6010   24.0250 C   0  0  0  0  0  0  0  0  0  0  0  0
  -25.5630   65.6280   25.0720 C   0  0  0  0  0  0  0  0  0  0  0  0
  -26.8910   65.5850   25.4980 C   0  0  0  0  0  0  0  0  0  0  0  0
  -27.2800   64.6680   26.4760 C   0  0  0  0  0  0  0  0  0  0  0  0
  -28.6150   64.6710   26.8620 O   0  0  0  0  0  0  0  0  0  0  0  0
  -26.3280   63.7770   27.0400 C   0  0  0  0  0  0  0  0  0  0  0  0
  -26.6430   62.8110   28.0430 C   0  0  0  0  0  0  0  0  0  0  0  0
  -28.0280   62.6340   28.6130 C   0  0  0  0  0  0  0  0  0  0  0  0
  -25.6260   61.9760   28.5340 C   0  0  0  0  0  0  0  0  0  0  0  0
  -24.3210   62.0750   28.0620 C   0  0  0  0  0  0  0  0  0  0  0  0
  -23.9900   63.0140   27.0800 C   0  0  0  0  0  0  0  0  0  0  0  0
  -22.5720   63.1050   26.5820 C   0  0  0  0  0  0  0  0  0  0  0  0
  -24.9870   63.8640   26.5690 C   0  0  0  0  0  0  0  0  0  0  0  0
  -24.6590   64.7760   25.6130 N   0  0  0  0  0  0  0  0  0  0  0  0
  1  2  1  0  0  0  0
  2  3  2  0  0  0  0
  2 14  1  0  0  0  0
  3  4  1  0  0  0  0
  4  5  1  0  0  0  0
  4  6  2  0  0  0  0
  6  7  1  0  0  0  0
  7  9  2  0  0  0  0
  7  8  1  0  0  0  0
 10  9  1  0  0  0  0
 11 10  2  0  0  0  0
 12 11  1  0  0  0  0
 13  6  1  0  0  0  0
 13 11  1  0  0  0  0
 14 13  2  0  0  0  0
M  END
>  <REMARK>
 VINA RESULT:      -7.5      2.021      3.455
  0 active torsions:
  status: ('A' for Active; 'I' for Inactive)

>  <TORSDO>
F 0

$$$$
../pdbqt/decoy.vina_out.71.pdbqt
 OpenBabel06052021513D

 14 15  0  0  0  0  0  0  0  0999 V2000
  -22.1630   66.4440   25.3790 C   0  0  0  0  0  0  0  0  0  0  0  0
  -23.5580   65.9430   25.5880 C   0  0  0  0  0  0  0  0  0  0  0  0
  -23.8860   65.1570   26.6940 C   0  0  0  0  0  0  0  0  0  0  0  0
  -25.1960   64.7040   26.8630 C   0  0  0  0  0  0  0  0  0  0  0  0
  -25.4640   63.9250   27.9820 O   0  0  0  0  0  0  0  0  0  0  0  0
  -26.1970   65.0400   25.9140 C   0  0  0  0  0  0  0  0  0  0  0  0
  -27.5580   64.6190   26.0130 C   0  0  0  0  0  0  0  0  0  0  0  0
  -28.0770   63.7650   27.1430 C   0  0  0  0  0  0  0  0  0  0  0  0
  -28.4700   65.0070   25.0180 C   0  0  0  0  0  0  0  0  0  0  0  0
  -28.0720   65.7930   23.9420 C   0  0  0  0  0  0  0  0  0  0  0  0
  -26.7450   66.2180   23.8240 C   0  0  0  0  0  0  0  0  0  0  0  0
  -26.3340   67.0680   22.6520 C   0  0  0  0  0  0  0  0  0  0  0  0
  -25.8080   65.8450   24.8050 C   0  0  0  0  0  0  0  0  0  0  0  0
  -24.5170   66.2610   24.6850 N   0  0  0  0  0  0  0  0  0  0  0  0
  1  2  1  0  0  0  0
  2  3  2  0  0  0  0
  3  4  1  0  0  0  0
  4  5  1  0  0  0  0
  6  7  1  0  0  0  0
  6  4  2  0  0  0  0
  7  8  1  0  0  0  0
  9  7  2  0  0  0  0
 10  9  1  0  0  0  0
 11 10  2  0  0  0  0
 11 13  1  0  0  0  0
 12 11  1  0  0  0  0
 13  6  1  0  0  0  0
 14 13  2  0  0  0  0
 14  2  1  0  0  0  0
M  END
>  <REMARK>
 VINA RESULT:      -7.5      1.976      3.326
  0 active torsions:
  status: ('A' for Active; 'I' for Inactive)

>  <TORSDO>
F 0

$$$$
../pdbqt/decoy.vina_out.71.pdbqt
 OpenBabel06052021513D

 14 15  0  0  0  0  0  0  0  0999 V2000
  -22.4330   66.5860   24.8240 C   0  0  0  0  0  0  0  0  0  0  0  0
  -23.7330   65.9700   25.2400 C   0  0  0  0  0  0  0  0  0  0  0  0
  -24.9440   66.4030   24.6990 C   0  0  0  0  0  0  0  0  0  0  0  0
  -26.1410   65.8110   25.1070 C   0  0  0  0  0  0  0  0  0  0  0  0
  -27.3160   66.2830   24.5340 O   0  0  0  0  0  0  0  0  0  0  0  0
  -26.1310   64.7680   26.0710 C   0  0  0  0  0  0  0  0  0  0  0  0
  -27.3080   64.1100   26.5390 C   0  0  0  0  0  0  0  0  0  0  0  0
  -28.6950   64.4570   26.0590 C   0  0  0  0  0  0  0  0  0  0  0  0
  -27.1880   63.0890   27.4960 C   0  0  0  0  0  0  0  0  0  0  0  0
  -25.9450   62.7080   27.9920 C   0  0  0  0  0  0  0  0  0  0  0  0
  -24.7790   63.3380   27.5470 C   0  0  0  0  0  0  0  0  0  0  0  0
  -23.4440   62.9110   28.0960 C   0  0  0  0  0  0  0  0  0  0  0  0
  -24.8670   64.3650   26.5890 C   0  0  0  0  0  0  0  0  0  0  0  0
  -23.7280   64.9750   26.1590 N   0  0  0  0  0  0  0  0  0  0  0  0
  1  2  1  0  0  0  0
  2 14  2  0  0  0  0
  3  4  2  0  0  0  0
  3  2  1  0  0  0  0
  4  6  1  0  0  0  0
  5  4  1  0  0  0  0
  6  7  2  0  0  0  0
  6 13  1  0  0  0  0
  7  9  1  0  0  0  0
  8  7  1  0  0  0  0
  9 10  2  0  0  0  0
 11 10  1  0  0  0  0
 11 12  1  0  0  0  0
 13 11  2  0  0  0  0
 14 13  1  0  0  0  0
M  END
>  <REMARK>
 VINA RESULT:      -7.2      1.158      1.757
  0 active torsions:
  status: ('A' for Active; 'I' for Inactive)

>  <TORSDO>
F 0

$$$$
../pdbqt/decoy.vina_out.71.pdbqt
 OpenBabel06052021513D

 14 15  0  0  0  0  0  0  0  0999 V2000
  -28.6740   65.9880   25.0290 C   0  0  0  0  0  0  0  0  0  0  0  0
  -27.3520   65.4090   25.4280 C   0  0  0  0  0  0  0  0  0  0  0  0
  -26.1620   65.8620   24.8570 C   0  0  0  0  0  0  0  0  0  0  0  0
  -24.9440   65.3030   25.2490 C   0  0  0  0  0  0  0  0  0  0  0  0
  -23.7910   65.7930   24.6470 O   0  0  0  0  0  0  0  0  0  0  0  0
  -24.9110   64.2740   26.2270 C   0  0  0  0  0  0  0  0  0  0  0  0
  -23.7090   63.6510   26.6830 C   0  0  0  0  0  0  0  0  0  0  0  0
  -22.3410   64.0220   26.1680 C   0  0  0  0  0  0  0  0  0  0  0  0
  -23.7870   62.6410   27.6560 C   0  0  0  0  0  0  0  0  0  0  0  0
  -25.0110   62.2400   28.1820 C   0  0  0  0  0  0  0  0  0  0  0  0
  -26.2000   62.8360   27.7510 C   0  0  0  0  0  0  0  0  0  0  0  0
  -27.5140   62.3870   28.3330 C   0  0  0  0  0  0  0  0  0  0  0  0
  -26.1540   63.8500   26.7770 C   0  0  0  0  0  0  0  0  0  0  0  0
  -27.3150   64.4270   26.3620 N   0  0  0  0  0  0  0  0  0  0  0  0
  1  2  1  0  0  0  0
  2 14  2  0  0  0  0
  3  4  2  0  0  0  0
  3  2  1  0  0  0  0
  4  6  1  0  0  0  0
  5  4  1  0  0  0  0
  6  7  2  0  0  0  0
  6 13  1  0  0  0  0
  7  9  1  0  0  0  0
  8  7  1  0  0  0  0
  9 10  2  0  0  0  0
 11 10  1  0  0  0  0
 11 12  1  0  0  0  0
 13 11  2  0  0  0  0
 14 13  1  0  0  0  0
M  END
>  <REMARK>
 VINA RESULT:      -7.2      2.006      3.989
  0 active torsions:
  status: ('A' for Active; 'I' for Inactive)

>  <TORSDO>
F 0

$$$$
