../pdbqt/decoy.vina_out.49.pdbqt
 OpenBabel06052021513D

 34 35  0  0  1  0  0  0  0  0999 V2000
  -17.5140   65.9970   24.3410 C   0  0  2  0  0  0  0  0  0  0  0  0
  -18.4620   65.1110   24.0910 N   0  0  0  0  0  0  0  0  0  0  0  0
  -18.7840   63.9730   24.9790 C   0  0  0  0  0  0  0  0  0  0  0  0
  -20.1850   64.0970   25.5290 C   0  0  0  0  0  0  0  0  0  0  0  0
  -20.5240   65.1770   26.3620 C   0  0  0  0  0  0  0  0  0  0  0  0
  -21.8190   65.2960   26.8750 C   0  0  0  0  0  0  0  0  0  0  0  0
  -22.8000   64.3430   26.5520 C   0  0  0  0  0  0  0  0  0  0  0  0
  -22.4570   63.2560   25.7410 C   0  0  0  0  0  0  0  0  0  0  0  0
  -21.1630   63.1350   25.2280 C   0  0  0  0  0  0  0  0  0  0  0  0
  -24.1060   64.4190   27.0600 O   0  0  0  0  0  0  0  0  0  0  0  0
  -25.2260   64.8880   26.3580 C   0  0  0  0  0  0  0  0  0  0  0  0
  -25.1110   65.7940   25.2890 C   0  0  0  0  0  0  0  0  0  0  0  0
  -26.2500   66.2260   24.6040 C   0  0  0  0  0  0  0  0  0  0  0  0
  -27.5230   65.7520   24.9650 C   0  0  0  0  0  0  0  0  0  0  0  0
  -27.6300   64.8300   26.0230 C   0  0  0  0  0  0  0  0  0  0  0  0
  -26.4890   64.3990   26.7050 C   0  0  0  0  0  0  0  0  0  0  0  0
  -28.6940   66.1990   24.2570 N   0  0  0  0  0  0  0  0  0  0  0  0
  -28.7670   67.3650   23.8170 O   0  0  0  0  0  0  0  0  0  0  0  0
  -29.7550   65.3460   24.0530 O   0  0  0  0  0  0  0  0  0  0  0  0
  -19.2700   65.2290   22.8580 C   0  0  0  0  0  0  0  0  0  0  0  0
  -19.0460   64.0320   21.9320 C   0  0  0  0  0  0  0  0  0  0  0  0
  -18.1360   64.3900   20.8970 O   0  0  0  0  0  0  0  0  0  0  0  0
  -16.7580   64.1810   20.9930 C   0  0  0  0  0  0  0  0  0  0  0  0
  -16.2640   63.5740   21.9820 O   0  0  0  0  0  0  0  0  0  0  0  0
  -15.8740   64.6320   19.8750 C   0  0  0  0  0  0  0  0  0  0  0  0
  -14.6730   65.4090   20.4290 C   0  0  0  0  0  0  0  0  0  0  0  0
  -13.3750   64.6670   20.2810 C   0  0  0  0  0  0  0  0  0  0  0  0
  -12.8780   64.4330   19.1460 O   0  0  0  0  0  0  0  0  0  0  0  0
  -12.7100   64.2310   21.4190 O   0  0  0  0  0  0  0  0  0  0  0  0
  -17.2730   67.0090   23.4040 O   0  0  0  0  0  0  0  0  0  0  0  0
  -16.6270   66.9010   22.6320 H   0  0  0  0  0  0  0  0  0  0  0  0
  -16.6200   65.9260   25.5690 C   0  0  0  0  0  0  0  0  0  0  0  0
  -17.2250   66.9420   26.9070 Cl  0  0  0  0  0  0  0  0  0  0  0  0
  -14.9780   66.4570   25.1320 Cl  0  0  0  0  0  0  0  0  0  0  0  0
  1 30  1  6  0  0  0
  1 32  1  0  0  0  0
  2  1  1  0  0  0  0
  2  3  1  0  0  0  0
  3  4  1  0  0  0  0
  4  5  1  0  0  0  0
  5  6  2  0  0  0  0
  7  6  1  0  0  0  0
  7 10  1  0  0  0  0
  8  7  2  0  0  0  0
  9  4  2  0  0  0  0
  9  8  1  0  0  0  0
 11 16  1  0  0  0  0
 11 10  1  0  0  0  0
 12 11  2  0  0  0  0
 13 14  2  0  0  0  0
 13 12  1  0  0  0  0
 14 15  1  0  0  0  0
 15 16  2  0  0  0  0
 17 14  1  0  0  0  0
 18 17  2  0  0  0  0
 19 17  2  0  0  0  0
 20  2  1  0  0  0  0
 21 20  1  0  0  0  0
 22 23  1  0  0  0  0
 22 21  1  0  0  0  0
 23 24  2  0  0  0  0
 25 26  1  0  0  0  0
 25 23  1  0  0  0  0
 27 26  1  0  0  0  0
 27 29  1  0  0  0  0
 28 27  2  0  0  0  0
 31 30  1  0  0  0  0
 32 33  1  0  0  0  0
 34 32  1  0  0  0  0
M  END
>  <MODEL>
1

>  <REMARK>
 VINA RESULT:      -7.7      0.000      0.000
  14 active torsions:
  status: ('A' for Active; 'I' for Inactive)
    1  A    between atoms: O1_2  and  C1_3 
    2  A    between atoms: C1_3  and  C21_32 
    3  A    between atoms: N1_4  and  C2_5 
    4  A    between atoms: N1_4  and  C15_22 
    5  A    between atoms: C2_5  and  C3_6 
    6  A    between atoms: C6_9  and  O2_10 
    7  A    between atoms: O2_10  and  C7_11 
    8  A    between atoms: C10_14  and  N2_15 
    9  A    between atoms: C15_22  and  C16_23 
   10  A    between atoms: C16_23  and  O5_24 
   11  A    between atoms: O5_24  and  C17_25 
   12  A    between atoms: C17_25  and  C18_27 
   13  A    between atoms: C18_27  and  C19_28 
   14  A    between atoms: C19_28  and  C20_29 

>  <TORSDO>
F 14

$$$$
../pdbqt/decoy.vina_out.49.pdbqt
 OpenBabel06052021513D

 34 35  0  0  1  0  0  0  0  0999 V2000
  -17.0970   64.3010   22.8900 C   0  0  2  0  0  0  0  0  0  0  0  0
  -17.6140   63.4760   23.7840 N   0  0  0  0  0  0  0  0  0  0  0  0
  -18.8640   62.7130   23.5790 C   0  0  0  0  0  0  0  0  0  0  0  0
  -20.0120   63.3480   24.3270 C   0  0  0  0  0  0  0  0  0  0  0  0
  -20.7010   62.6220   25.3140 C   0  0  0  0  0  0  0  0  0  0  0  0
  -21.7640   63.2050   26.0080 C   0  0  0  0  0  0  0  0  0  0  0  0
  -22.1480   64.5300   25.7370 C   0  0  0  0  0  0  0  0  0  0  0  0
  -21.4770   65.2450   24.7390 C   0  0  0  0  0  0  0  0  0  0  0  0
  -20.4140   64.6640   24.0440 C   0  0  0  0  0  0  0  0  0  0  0  0
  -23.2200   65.1440   26.4010 O   0  0  0  0  0  0  0  0  0  0  0  0
  -24.4890   65.3810   25.8520 C   0  0  0  0  0  0  0  0  0  0  0  0
  -24.6710   66.1930   24.7190 C   0  0  0  0  0  0  0  0  0  0  0  0
  -25.9500   66.3930   24.1920 C   0  0  0  0  0  0  0  0  0  0  0  0
  -27.0680   65.7770   24.7790 C   0  0  0  0  0  0  0  0  0  0  0  0
  -26.8780   64.9500   25.9010 C   0  0  0  0  0  0  0  0  0  0  0  0
  -25.5970   64.7510   26.4240 C   0  0  0  0  0  0  0  0  0  0  0  0
  -28.3830   65.9850   24.2320 N   0  0  0  0  0  0  0  0  0  0  0  0
  -28.6690   67.0490   23.6450 O   0  0  0  0  0  0  0  0  0  0  0  0
  -29.3510   65.0130   24.3490 O   0  0  0  0  0  0  0  0  0  0  0  0
  -16.9310   63.2770   25.0810 C   0  0  0  0  0  0  0  0  0  0  0  0
  -17.4770   64.2310   26.1460 C   0  0  0  0  0  0  0  0  0  0  0  0
  -17.6080   65.5380   25.5980 O   0  0  0  0  0  0  0  0  0  0  0  0
  -16.8800   66.6350   26.0670 C   0  0  0  0  0  0  0  0  0  0  0  0
  -15.7010   66.8450   25.6700 O   0  0  0  0  0  0  0  0  0  0  0  0
  -17.5370   67.5970   27.0030 C   0  0  0  0  0  0  0  0  0  0  0  0
  -19.0520   67.6160   26.7670 C   0  0  0  0  0  0  0  0  0  0  0  0
  -19.4930   68.7330   25.8650 C   0  0  0  0  0  0  0  0  0  0  0  0
  -18.8290   69.8010   25.7700 O   0  0  0  0  0  0  0  0  0  0  0  0
  -20.6540   68.5850   25.1190 O   0  0  0  0  0  0  0  0  0  0  0  0
  -15.9280   65.0000   23.2150 O   0  0  0  0  0  0  0  0  0  0  0  0
  -15.8370   65.5610   24.0540 H   0  0  0  0  0  0  0  0  0  0  0  0
  -17.7540   64.5830   21.5480 C   0  0  0  0  0  0  0  0  0  0  0  0
  -16.6020   64.4560   20.1900 Cl  0  0  0  0  0  0  0  0  0  0  0  0
  -18.4530   66.2200   21.5690 Cl  0  0  0  0  0  0  0  0  0  0  0  0
  1 32  1  1  0  0  0
  1 30  1  0  0  0  0
  1  2  1  0  0  0  0
  2 20  1  0  0  0  0
  3  2  1  0  0  0  0
  3  4  1  0  0  0  0
  4  5  1  0  0  0  0
  5  6  2  0  0  0  0
  7  6  1  0  0  0  0
  7 10  1  0  0  0  0
  8  7  2  0  0  0  0
  9  4  2  0  0  0  0
  9  8  1  0  0  0  0
 11 10  1  0  0  0  0
 11 16  2  0  0  0  0
 12 11  1  0  0  0  0
 13 12  2  0  0  0  0
 13 14  1  0  0  0  0
 14 15  2  0  0  0  0
 15 16  1  0  0  0  0
 17 19  2  0  0  0  0
 17 14  1  0  0  0  0
 18 17  2  0  0  0  0
 20 21  1  0  0  0  0
 22 23  1  0  0  0  0
 22 21  1  0  0  0  0
 23 25  1  0  0  0  0
 24 23  2  0  0  0  0
 26 25  1  0  0  0  0
 27 26  1  0  0  0  0
 28 27  1  0  0  0  0
 29 27  2  0  0  0  0
 30 31  1  0  0  0  0
 32 34  1  0  0  0  0
 33 32  1  0  0  0  0
M  END
>  <REMARK>
 VINA RESULT:      -7.6      2.377      4.527
  14 active torsions:
  status: ('A' for Active; 'I' for Inactive)
    1  A    between atoms: O1_2  and  C1_3 
    2  A    between atoms: C1_3  and  C21_32 
    3  A    between atoms: N1_4  and  C2_5 
    4  A    between atoms: N1_4  and  C15_22 
    5  A    between atoms: C2_5  and  C3_6 
    6  A    between atoms: C6_9  and  O2_10 
    7  A    between atoms: O2_10  and  C7_11 
    8  A    between atoms: C10_14  and  N2_15 
    9  A    between atoms: C15_22  and  C16_23 
   10  A    between atoms: C16_23  and  O5_24 
   11  A    between atoms: O5_24  and  C17_25 
   12  A    between atoms: C17_25  and  C18_27 
   13  A    between atoms: C18_27  and  C19_28 
   14  A    between atoms: C19_28  and  C20_29 

>  <TORSDO>
F 14

$$$$
../pdbqt/decoy.vina_out.49.pdbqt
 OpenBabel06052021513D

 34 35  0  0  1  0  0  0  0  0999 V2000
  -16.9400   64.1370   23.2490 C   0  0  2  0  0  0  0  0  0  0  0  0
  -18.2260   64.2340   22.9570 N   0  0  0  0  0  0  0  0  0  0  0  0
  -19.1510   63.0810   22.9030 C   0  0  0  0  0  0  0  0  0  0  0  0
  -20.1370   63.1270   24.0460 C   0  0  0  0  0  0  0  0  0  0  0  0
  -21.5110   63.2660   23.7890 C   0  0  0  0  0  0  0  0  0  0  0  0
  -22.4280   63.3100   24.8430 C   0  0  0  0  0  0  0  0  0  0  0  0
  -21.9850   63.2010   26.1720 C   0  0  0  0  0  0  0  0  0  0  0  0
  -20.6150   63.0850   26.4300 C   0  0  0  0  0  0  0  0  0  0  0  0
  -19.6970   63.0410   25.3770 C   0  0  0  0  0  0  0  0  0  0  0  0
  -22.8720   63.2570   27.2580 O   0  0  0  0  0  0  0  0  0  0  0  0
  -24.2390   63.5630   27.1770 C   0  0  0  0  0  0  0  0  0  0  0  0
  -24.7060   64.7330   26.5540 C   0  0  0  0  0  0  0  0  0  0  0  0
  -26.0770   64.9940   26.4800 C   0  0  0  0  0  0  0  0  0  0  0  0
  -27.0070   64.0860   27.0150 C   0  0  0  0  0  0  0  0  0  0  0  0
  -26.5350   62.9070   27.6200 C   0  0  0  0  0  0  0  0  0  0  0  0
  -25.1630   62.6490   27.6920 C   0  0  0  0  0  0  0  0  0  0  0  0
  -28.4180   64.3590   26.9360 N   0  0  0  0  0  0  0  0  0  0  0  0
  -29.0420   64.7840   27.9300 O   0  0  0  0  0  0  0  0  0  0  0  0
  -29.1050   64.1550   25.7600 O   0  0  0  0  0  0  0  0  0  0  0  0
  -18.8120   65.5590   22.6600 C   0  0  0  0  0  0  0  0  0  0  0  0
  -19.2080   66.2910   23.9440 C   0  0  0  0  0  0  0  0  0  0  0  0
  -20.5480   66.7580   23.8360 O   0  0  0  0  0  0  0  0  0  0  0  0
  -21.3700   66.9700   24.9470 C   0  0  0  0  0  0  0  0  0  0  0  0
  -22.6250   66.9280   24.8380 O   0  0  0  0  0  0  0  0  0  0  0  0
  -20.7420   67.1870   26.2860 C   0  0  0  0  0  0  0  0  0  0  0  0
  -20.8980   68.6520   26.7130 C   0  0  0  0  0  0  0  0  0  0  0  0
  -19.5950   69.4010   26.7280 C   0  0  0  0  0  0  0  0  0  0  0  0
  -19.0380   69.7700   25.6590 O   0  0  0  0  0  0  0  0  0  0  0  0
  -18.9950   69.6940   27.9450 O   0  0  0  0  0  0  0  0  0  0  0  0
  -16.1550   65.2960   23.2280 O   0  0  0  0  0  0  0  0  0  0  0  0
  -16.4920   66.1830   22.8760 H   0  0  0  0  0  0  0  0  0  0  0  0
  -16.2560   62.8090   23.5350 C   0  0  0  0  0  0  0  0  0  0  0  0
  -15.2800   62.8590   25.0290 Cl  0  0  0  0  0  0  0  0  0  0  0  0
  -15.2030   62.3830   22.1650 Cl  0  0  0  0  0  0  0  0  0  0  0  0
  1 30  1  6  0  0  0
  1 32  1  0  0  0  0
  2  1  1  0  0  0  0
  3  2  1  0  0  0  0
  3  4  1  0  0  0  0
  4  9  1  0  0  0  0
  5  4  2  0  0  0  0
  5  6  1  0  0  0  0
  6  7  2  0  0  0  0
  7  8  1  0  0  0  0
  7 10  1  0  0  0  0
  9  8  2  0  0  0  0
 11 10  1  0  0  0  0
 11 16  2  0  0  0  0
 12 11  1  0  0  0  0
 13 12  2  0  0  0  0
 13 14  1  0  0  0  0
 14 15  2  0  0  0  0
 15 16  1  0  0  0  0
 17 14  1  0  0  0  0
 17 18  2  0  0  0  0
 19 17  2  0  0  0  0
 20  2  1  0  0  0  0
 20 21  1  0  0  0  0
 22 21  1  0  0  0  0
 22 23  1  0  0  0  0
 23 25  1  0  0  0  0
 24 23  2  0  0  0  0
 25 26  1  0  0  0  0
 26 27  1  0  0  0  0
 27 29  1  0  0  0  0
 28 27  2  0  0  0  0
 31 30  1  0  0  0  0
 32 33  1  0  0  0  0
 34 32  1  0  0  0  0
M  END
>  <REMARK>
 VINA RESULT:      -7.5      2.671      4.931
  14 active torsions:
  status: ('A' for Active; 'I' for Inactive)
    1  A    between atoms: O1_2  and  C1_3 
    2  A    between atoms: C1_3  and  C21_32 
    3  A    between atoms: N1_4  and  C2_5 
    4  A    between atoms: N1_4  and  C15_22 
    5  A    between atoms: C2_5  and  C3_6 
    6  A    between atoms: C6_9  and  O2_10 
    7  A    between atoms: O2_10  and  C7_11 
    8  A    between atoms: C10_14  and  N2_15 
    9  A    between atoms: C15_22  and  C16_23 
   10  A    between atoms: C16_23  and  O5_24 
   11  A    between atoms: O5_24  and  C17_25 
   12  A    between atoms: C17_25  and  C18_27 
   13  A    between atoms: C18_27  and  C19_28 
   14  A    between atoms: C19_28  and  C20_29 

>  <TORSDO>
F 14

$$$$
../pdbqt/decoy.vina_out.49.pdbqt
 OpenBabel06052021513D

 34 35  0  0  1  0  0  0  0  0999 V2000
  -18.7260   67.0300   25.6510 C   0  0  2  0  0  0  0  0  0  0  0  0
  -18.2990   65.9110   26.2100 N   0  0  0  0  0  0  0  0  0  0  0  0
  -18.7860   65.3990   27.5090 C   0  0  0  0  0  0  0  0  0  0  0  0
  -20.2600   65.0780   27.4450 C   0  0  0  0  0  0  0  0  0  0  0  0
  -20.7390   64.1350   26.5200 C   0  0  0  0  0  0  0  0  0  0  0  0
  -22.1030   63.8370   26.4550 C   0  0  0  0  0  0  0  0  0  0  0  0
  -23.0090   64.4670   27.3250 C   0  0  0  0  0  0  0  0  0  0  0  0
  -22.5360   65.4230   28.2300 C   0  0  0  0  0  0  0  0  0  0  0  0
  -21.1730   65.7230   28.2960 C   0  0  0  0  0  0  0  0  0  0  0  0
  -24.3870   64.2060   27.2790 O   0  0  0  0  0  0  0  0  0  0  0  0
  -25.2940   64.7780   26.3750 C   0  0  0  0  0  0  0  0  0  0  0  0
  -26.6740   64.5180   26.4380 C   0  0  0  0  0  0  0  0  0  0  0  0
  -27.5480   65.1190   25.5280 C   0  0  0  0  0  0  0  0  0  0  0  0
  -27.0620   66.0010   24.5470 C   0  0  0  0  0  0  0  0  0  0  0  0
  -25.6830   66.2730   24.5010 C   0  0  0  0  0  0  0  0  0  0  0  0
  -24.8120   65.6700   25.4130 C   0  0  0  0  0  0  0  0  0  0  0  0
  -27.9660   66.6190   23.6130 N   0  0  0  0  0  0  0  0  0  0  0  0
  -27.8580   66.4090   22.3870 O   0  0  0  0  0  0  0  0  0  0  0  0
  -28.9670   67.4540   24.0560 O   0  0  0  0  0  0  0  0  0  0  0  0
  -17.2720   65.0950   25.5280 C   0  0  0  0  0  0  0  0  0  0  0  0
  -17.9080   63.9340   24.7580 C   0  0  0  0  0  0  0  0  0  0  0  0
  -18.3680   64.3940   23.4910 O   0  0  0  0  0  0  0  0  0  0  0  0
  -17.5030   64.8010   22.4720 C   0  0  0  0  0  0  0  0  0  0  0  0
  -17.5060   65.9940   22.0610 O   0  0  0  0  0  0  0  0  0  0  0  0
  -16.5240   63.8200   21.9120 C   0  0  0  0  0  0  0  0  0  0  0  0
  -15.2030   64.5220   21.5760 C   0  0  0  0  0  0  0  0  0  0  0  0
  -14.7110   64.2160   20.1890 C   0  0  0  0  0  0  0  0  0  0  0  0
  -15.4620   64.3390   19.1840 O   0  0  0  0  0  0  0  0  0  0  0  0
  -13.4020   63.7890   20.0130 O   0  0  0  0  0  0  0  0  0  0  0  0
  -18.1590   67.4340   24.4360 O   0  0  0  0  0  0  0  0  0  0  0  0
  -17.9860   68.4050   24.2060 H   0  0  0  0  0  0  0  0  0  0  0  0
  -19.7550   67.9390   26.3030 C   0  0  0  0  0  0  0  0  0  0  0  0
  -21.3220   67.9120   25.4470 Cl  0  0  0  0  0  0  0  0  0  0  0  0
  -19.1330   69.6070   26.3270 Cl  0  0  0  0  0  0  0  0  0  0  0  0
  1 30  1  1  0  0  0
  1  2  1  0  0  0  0
  1 32  1  0  0  0  0
  2  3  1  0  0  0  0
  4  3  1  0  0  0  0
  4  9  2  0  0  0  0
  5  4  1  0  0  0  0
  6  5  2  0  0  0  0
  6  7  1  0  0  0  0
  7  8  2  0  0  0  0
  8  9  1  0  0  0  0
 10  7  1  0  0  0  0
 11 12  1  0  0  0  0
 11 10  1  0  0  0  0
 13 12  2  0  0  0  0
 14 13  1  0  0  0  0
 15 14  2  0  0  0  0
 15 16  1  0  0  0  0
 16 11  2  0  0  0  0
 17 19  2  0  0  0  0
 17 14  1  0  0  0  0
 18 17  2  0  0  0  0
 20  2  1  0  0  0  0
 21 20  1  0  0  0  0
 22 21  1  0  0  0  0
 23 22  1  0  0  0  0
 24 23  2  0  0  0  0
 25 23  1  0  0  0  0
 26 25  1  0  0  0  0
 27 26  1  0  0  0  0
 28 27  2  0  0  0  0
 29 27  1  0  0  0  0
 31 30  1  0  0  0  0
 32 34  1  0  0  0  0
 33 32  1  0  0  0  0
M  END
>  <REMARK>
 VINA RESULT:      -7.4      1.724      2.519
  14 active torsions:
  status: ('A' for Active; 'I' for Inactive)
    1  A    between atoms: O1_2  and  C1_3 
    2  A    between atoms: C1_3  and  C21_32 
    3  A    between atoms: N1_4  and  C2_5 
    4  A    between atoms: N1_4  and  C15_22 
    5  A    between atoms: C2_5  and  C3_6 
    6  A    between atoms: C6_9  and  O2_10 
    7  A    between atoms: O2_10  and  C7_11 
    8  A    between atoms: C10_14  and  N2_15 
    9  A    between atoms: C15_22  and  C16_23 
   10  A    between atoms: C16_23  and  O5_24 
   11  A    between atoms: O5_24  and  C17_25 
   12  A    between atoms: C17_25  and  C18_27 
   13  A    between atoms: C18_27  and  C19_28 
   14  A    between atoms: C19_28  and  C20_29 

>  <TORSDO>
F 14

$$$$
../pdbqt/decoy.vina_out.49.pdbqt
 OpenBabel06052021513D

 34 35  0  0  1  0  0  0  0  0999 V2000
  -16.5920   65.0030   23.9410 C   0  0  2  0  0  0  0  0  0  0  0  0
  -17.4340   65.1440   22.9320 N   0  0  0  0  0  0  0  0  0  0  0  0
  -18.3920   66.2630   22.8050 C   0  0  0  0  0  0  0  0  0  0  0  0
  -19.6290   66.0110   23.6330 C   0  0  0  0  0  0  0  0  0  0  0  0
  -20.2010   64.7280   23.6780 C   0  0  0  0  0  0  0  0  0  0  0  0
  -21.3470   64.4900   24.4420 C   0  0  0  0  0  0  0  0  0  0  0  0
  -21.9320   65.5290   25.1860 C   0  0  0  0  0  0  0  0  0  0  0  0
  -21.3760   66.8120   25.1230 C   0  0  0  0  0  0  0  0  0  0  0  0
  -20.2310   67.0520   24.3600 C   0  0  0  0  0  0  0  0  0  0  0  0
  -23.0910   65.3340   25.9520 O   0  0  0  0  0  0  0  0  0  0  0  0
  -24.4040   65.5560   25.5120 C   0  0  0  0  0  0  0  0  0  0  0  0
  -24.6860   66.2870   24.3450 C   0  0  0  0  0  0  0  0  0  0  0  0
  -26.0080   66.4730   23.9310 C   0  0  0  0  0  0  0  0  0  0  0  0
  -27.0710   65.9230   24.6670 C   0  0  0  0  0  0  0  0  0  0  0  0
  -26.7820   65.1760   25.8240 C   0  0  0  0  0  0  0  0  0  0  0  0
  -25.4590   64.9910   26.2340 C   0  0  0  0  0  0  0  0  0  0  0  0
  -28.4310   66.1170   24.2370 N   0  0  0  0  0  0  0  0  0  0  0  0
  -29.2090   65.1470   24.1270 O   0  0  0  0  0  0  0  0  0  0  0  0
  -28.8970   67.3770   23.9370 O   0  0  0  0  0  0  0  0  0  0  0  0
  -17.4500   64.1400   21.8450 C   0  0  0  0  0  0  0  0  0  0  0  0
  -16.7890   64.6860   20.5770 C   0  0  0  0  0  0  0  0  0  0  0  0
  -15.7970   63.7730   20.1220 O   0  0  0  0  0  0  0  0  0  0  0  0
  -14.4320   64.0700   20.1280 C   0  0  0  0  0  0  0  0  0  0  0  0
  -13.6200   63.3640   20.7850 O   0  0  0  0  0  0  0  0  0  0  0  0
  -13.9310   65.2040   19.2920 C   0  0  0  0  0  0  0  0  0  0  0  0
  -13.7580   66.4610   20.1530 C   0  0  0  0  0  0  0  0  0  0  0  0
  -12.3730   66.5990   20.7200 C   0  0  0  0  0  0  0  0  0  0  0  0
  -11.3770   66.0700   20.1560 O   0  0  0  0  0  0  0  0  0  0  0  0
  -12.1880   67.3240   21.8900 O   0  0  0  0  0  0  0  0  0  0  0  0
  -15.7610   63.8770   23.9740 O   0  0  0  0  0  0  0  0  0  0  0  0
  -15.0560   63.6930   23.2700 H   0  0  0  0  0  0  0  0  0  0  0  0
  -16.5370   65.9730   25.1110 C   0  0  0  0  0  0  0  0  0  0  0  0
  -14.8620   66.3100   25.6320 Cl  0  0  0  0  0  0  0  0  0  0  0  0
  -17.4470   65.2930   26.4820 Cl  0  0  0  0  0  0  0  0  0  0  0  0
  1 30  1  1  0  0  0
  1 32  1  0  0  0  0
  2  1  1  0  0  0  0
  3  2  1  0  0  0  0
  3  4  1  0  0  0  0
  4  5  2  0  0  0  0
  4  9  1  0  0  0  0
  5  6  1  0  0  0  0
  6  7  2  0  0  0  0
  7 10  1  0  0  0  0
  8  7  1  0  0  0  0
  9  8  2  0  0  0  0
 11 10  1  0  0  0  0
 11 16  2  0  0  0  0
 12 11  1  0  0  0  0
 13 12  2  0  0  0  0
 13 14  1  0  0  0  0
 14 15  2  0  0  0  0
 15 16  1  0  0  0  0
 17 14  1  0  0  0  0
 18 17  2  0  0  0  0
 19 17  2  0  0  0  0
 20  2  1  0  0  0  0
 21 20  1  0  0  0  0
 22 23  1  0  0  0  0
 22 21  1  0  0  0  0
 23 24  2  0  0  0  0
 25 23  1  0  0  0  0
 25 26  1  0  0  0  0
 26 27  1  0  0  0  0
 27 29  1  0  0  0  0
 28 27  2  0  0  0  0
 31 30  1  0  0  0  0
 32 33  1  0  0  0  0
 32 34  1  0  0  0  0
M  END
>  <REMARK>
 VINA RESULT:      -7.3      1.530      2.350
  14 active torsions:
  status: ('A' for Active; 'I' for Inactive)
    1  A    between atoms: O1_2  and  C1_3 
    2  A    between atoms: C1_3  and  C21_32 
    3  A    between atoms: N1_4  and  C2_5 
    4  A    between atoms: N1_4  and  C15_22 
    5  A    between atoms: C2_5  and  C3_6 
    6  A    between atoms: C6_9  and  O2_10 
    7  A    between atoms: O2_10  and  C7_11 
    8  A    between atoms: C10_14  and  N2_15 
    9  A    between atoms: C15_22  and  C16_23 
   10  A    between atoms: C16_23  and  O5_24 
   11  A    between atoms: O5_24  and  C17_25 
   12  A    between atoms: C17_25  and  C18_27 
   13  A    between atoms: C18_27  and  C19_28 
   14  A    between atoms: C19_28  and  C20_29 

>  <TORSDO>
F 14

$$$$
../pdbqt/decoy.vina_out.49.pdbqt
 OpenBabel06052021513D

 34 35  0  0  1  0  0  0  0  0999 V2000
  -19.1910   64.5980   22.9930 C   0  0  2  0  0  0  0  0  0  0  0  0
  -18.8330   64.9580   24.2140 N   0  0  0  0  0  0  0  0  0  0  0  0
  -19.0330   64.1190   25.4150 C   0  0  0  0  0  0  0  0  0  0  0  0
  -20.4610   64.2020   25.8980 C   0  0  0  0  0  0  0  0  0  0  0  0
  -20.9160   65.3500   26.5670 C   0  0  0  0  0  0  0  0  0  0  0  0
  -22.2370   65.4310   27.0180 C   0  0  0  0  0  0  0  0  0  0  0  0
  -23.1290   64.3690   26.7940 C   0  0  0  0  0  0  0  0  0  0  0  0
  -22.6710   63.2160   26.1470 C   0  0  0  0  0  0  0  0  0  0  0  0
  -21.3510   63.1330   25.6970 C   0  0  0  0  0  0  0  0  0  0  0  0
  -24.4570   64.4060   27.2440 O   0  0  0  0  0  0  0  0  0  0  0  0
  -25.5610   64.8290   26.4900 C   0  0  0  0  0  0  0  0  0  0  0  0
  -25.4200   65.6530   25.3600 C   0  0  0  0  0  0  0  0  0  0  0  0
  -26.5440   66.0410   24.6250 C   0  0  0  0  0  0  0  0  0  0  0  0
  -27.8270   65.6020   24.9960 C   0  0  0  0  0  0  0  0  0  0  0  0
  -27.9600   64.7610   26.1170 C   0  0  0  0  0  0  0  0  0  0  0  0
  -26.8330   64.3750   26.8490 C   0  0  0  0  0  0  0  0  0  0  0  0
  -28.9810   66.0030   24.2360 N   0  0  0  0  0  0  0  0  0  0  0  0
  -29.0320   67.1290   23.7000 O   0  0  0  0  0  0  0  0  0  0  0  0
  -30.0510   65.1490   24.0870 O   0  0  0  0  0  0  0  0  0  0  0  0
  -18.1910   66.2720   24.4320 C   0  0  0  0  0  0  0  0  0  0  0  0
  -16.7080   66.1140   24.7780 C   0  0  0  0  0  0  0  0  0  0  0  0
  -15.9100   66.5750   23.6930 O   0  0  0  0  0  0  0  0  0  0  0  0
  -15.0640   65.7370   22.9630 C   0  0  0  0  0  0  0  0  0  0  0  0
  -14.1070   65.1370   23.5260 O   0  0  0  0  0  0  0  0  0  0  0  0
  -15.3420   65.5070   21.5130 C   0  0  0  0  0  0  0  0  0  0  0  0
  -14.1470   65.9610   20.6650 C   0  0  0  0  0  0  0  0  0  0  0  0
  -13.3600   64.8140   20.0970 C   0  0  0  0  0  0  0  0  0  0  0  0
  -13.7130   63.6190   20.2860 O   0  0  0  0  0  0  0  0  0  0  0  0
  -12.2220   65.0780   19.3460 O   0  0  0  0  0  0  0  0  0  0  0  0
  -18.9880   65.4960   21.9390 O   0  0  0  0  0  0  0  0  0  0  0  0
  -19.1920   66.4850   22.0100 H   0  0  0  0  0  0  0  0  0  0  0  0
  -19.8840   63.2790   22.6910 C   0  0  0  0  0  0  0  0  0  0  0  0
  -18.9390   61.8730   23.2540 Cl  0  0  0  0  0  0  0  0  0  0  0  0
  -20.1440   63.1400   20.9350 Cl  0  0  0  0  0  0  0  0  0  0  0  0
  1 30  1  1  0  0  0
  1  2  1  0  0  0  0
  2 20  1  0  0  0  0
  2  3  1  0  0  0  0
  3  4  1  0  0  0  0
  4  5  1  0  0  0  0
  5  6  2  0  0  0  0
  7  6  1  0  0  0  0
  7 10  1  0  0  0  0
  8  7  2  0  0  0  0
  9  4  2  0  0  0  0
  9  8  1  0  0  0  0
 11 16  1  0  0  0  0
 11 10  1  0  0  0  0
 12 11  2  0  0  0  0
 13 14  2  0  0  0  0
 13 12  1  0  0  0  0
 14 15  1  0  0  0  0
 15 16  2  0  0  0  0
 17 14  1  0  0  0  0
 18 17  2  0  0  0  0
 19 17  2  0  0  0  0
 20 21  1  0  0  0  0
 22 21  1  0  0  0  0
 23 24  2  0  0  0  0
 23 22  1  0  0  0  0
 25 23  1  0  0  0  0
 26 25  1  0  0  0  0
 27 28  1  0  0  0  0
 27 26  1  0  0  0  0
 29 27  2  0  0  0  0
 30 31  1  0  0  0  0
 32  1  1  0  0  0  0
 32 33  1  0  0  0  0
 34 32  1  0  0  0  0
M  END
>  <REMARK>
 VINA RESULT:      -7.2      1.962      2.531
  14 active torsions:
  status: ('A' for Active; 'I' for Inactive)
    1  A    between atoms: O1_2  and  C1_3 
    2  A    between atoms: C1_3  and  C21_32 
    3  A    between atoms: N1_4  and  C2_5 
    4  A    between atoms: N1_4  and  C15_22 
    5  A    between atoms: C2_5  and  C3_6 
    6  A    between atoms: C6_9  and  O2_10 
    7  A    between atoms: O2_10  and  C7_11 
    8  A    between atoms: C10_14  and  N2_15 
    9  A    between atoms: C15_22  and  C16_23 
   10  A    between atoms: C16_23  and  O5_24 
   11  A    between atoms: O5_24  and  C17_25 
   12  A    between atoms: C17_25  and  C18_27 
   13  A    between atoms: C18_27  and  C19_28 
   14  A    between atoms: C19_28  and  C20_29 

>  <TORSDO>
F 14

$$$$
../pdbqt/decoy.vina_out.49.pdbqt
 OpenBabel06052021513D

 34 35  0  0  1  0  0  0  0  0999 V2000
  -17.4070   63.8150   22.4920 C   0  0  2  0  0  0  0  0  0  0  0  0
  -17.6350   64.0770   23.7680 N   0  0  0  0  0  0  0  0  0  0  0  0
  -18.5940   65.0970   24.2440 C   0  0  0  0  0  0  0  0  0  0  0  0
  -19.7800   64.4500   24.9160 C   0  0  0  0  0  0  0  0  0  0  0  0
  -20.6100   63.5730   24.1970 C   0  0  0  0  0  0  0  0  0  0  0  0
  -21.7100   62.9720   24.8150 C   0  0  0  0  0  0  0  0  0  0  0  0
  -21.9910   63.2280   26.1680 C   0  0  0  0  0  0  0  0  0  0  0  0
  -21.1790   64.1190   26.8780 C   0  0  0  0  0  0  0  0  0  0  0  0
  -20.0790   64.7200   26.2620 C   0  0  0  0  0  0  0  0  0  0  0  0
  -23.0950   62.6570   26.8180 O   0  0  0  0  0  0  0  0  0  0  0  0
  -24.3790   63.2180   26.8870 C   0  0  0  0  0  0  0  0  0  0  0  0
  -24.7370   64.3550   26.1410 C   0  0  0  0  0  0  0  0  0  0  0  0
  -26.0320   64.8750   26.2250 C   0  0  0  0  0  0  0  0  0  0  0  0
  -26.9960   64.2620   27.0440 C   0  0  0  0  0  0  0  0  0  0  0  0
  -26.6380   63.1130   27.7720 C   0  0  0  0  0  0  0  0  0  0  0  0
  -25.3420   62.5950   27.6860 C   0  0  0  0  0  0  0  0  0  0  0  0
  -28.3280   64.8010   27.1260 N   0  0  0  0  0  0  0  0  0  0  0  0
  -28.8320   65.4080   26.1580 O   0  0  0  0  0  0  0  0  0  0  0  0
  -29.0720   64.6550   28.2750 O   0  0  0  0  0  0  0  0  0  0  0  0
  -16.9040   63.3260   24.8120 C   0  0  0  0  0  0  0  0  0  0  0  0
  -15.7750   64.1670   25.4110 C   0  0  0  0  0  0  0  0  0  0  0  0
  -14.7940   64.4340   24.4140 O   0  0  0  0  0  0  0  0  0  0  0  0
  -14.4990   65.7230   23.9650 C   0  0  0  0  0  0  0  0  0  0  0  0
  -15.0500   66.7310   24.4870 O   0  0  0  0  0  0  0  0  0  0  0  0
  -13.4710   65.9040   22.8950 C   0  0  0  0  0  0  0  0  0  0  0  0
  -14.0930   65.6560   21.5150 C   0  0  0  0  0  0  0  0  0  0  0  0
  -13.3960   64.5730   20.7420 C   0  0  0  0  0  0  0  0  0  0  0  0
  -12.4990   64.8420   19.8980 O   0  0  0  0  0  0  0  0  0  0  0  0
  -13.7470   63.2480   20.9640 O   0  0  0  0  0  0  0  0  0  0  0  0
  -16.4440   62.8550   22.1620 O   0  0  0  0  0  0  0  0  0  0  0  0
  -16.6330   61.8600   22.1690 H   0  0  0  0  0  0  0  0  0  0  0  0
  -18.0930   64.5640   21.3600 C   0  0  0  0  0  0  0  0  0  0  0  0
  -19.6050   63.7690   20.8400 Cl  0  0  0  0  0  0  0  0  0  0  0  0
  -16.9850   64.6740   19.9720 Cl  0  0  0  0  0  0  0  0  0  0  0  0
  1 32  1  6  0  0  0
  1  2  1  0  0  0  0
  2  3  1  0  0  0  0
  2 20  1  0  0  0  0
  3  4  1  0  0  0  0
  4  9  2  0  0  0  0
  5  6  2  0  0  0  0
  5  4  1  0  0  0  0
  6  7  1  0  0  0  0
  7 10  1  0  0  0  0
  7  8  2  0  0  0  0
  9  8  1  0  0  0  0
 10 11  1  0  0  0  0
 11 16  2  0  0  0  0
 12 13  2  0  0  0  0
 12 11  1  0  0  0  0
 13 14  1  0  0  0  0
 14 17  1  0  0  0  0
 14 15  2  0  0  0  0
 16 15  1  0  0  0  0
 17 19  2  0  0  0  0
 18 17  2  0  0  0  0
 20 21  1  0  0  0  0
 22 21  1  0  0  0  0
 23 22  1  0  0  0  0
 23 24  2  0  0  0  0
 25 23  1  0  0  0  0
 26 25  1  0  0  0  0
 27 29  1  0  0  0  0
 27 26  1  0  0  0  0
 28 27  2  0  0  0  0
 30 31  1  0  0  0  0
 30  1  1  0  0  0  0
 33 32  1  0  0  0  0
 34 32  1  0  0  0  0
M  END
>  <REMARK>
 VINA RESULT:      -7.2      2.398      3.282
  14 active torsions:
  status: ('A' for Active; 'I' for Inactive)
    1  A    between atoms: O1_2  and  C1_3 
    2  A    between atoms: C1_3  and  C21_32 
    3  A    between atoms: N1_4  and  C2_5 
    4  A    between atoms: N1_4  and  C15_22 
    5  A    between atoms: C2_5  and  C3_6 
    6  A    between atoms: C6_9  and  O2_10 
    7  A    between atoms: O2_10  and  C7_11 
    8  A    between atoms: C10_14  and  N2_15 
    9  A    between atoms: C15_22  and  C16_23 
   10  A    between atoms: C16_23  and  O5_24 
   11  A    between atoms: O5_24  and  C17_25 
   12  A    between atoms: C17_25  and  C18_27 
   13  A    between atoms: C18_27  and  C19_28 
   14  A    between atoms: C19_28  and  C20_29 

>  <TORSDO>
F 14

$$$$
../pdbqt/decoy.vina_out.49.pdbqt
 OpenBabel06052021513D

 34 35  0  0  1  0  0  0  0  0999 V2000
  -17.0080   63.9520   26.5390 C   0  0  2  0  0  0  0  0  0  0  0  0
  -17.8470   63.7440   25.5380 N   0  0  0  0  0  0  0  0  0  0  0  0
  -18.8670   62.6730   25.5240 C   0  0  0  0  0  0  0  0  0  0  0  0
  -20.2210   63.2130   25.9170 C   0  0  0  0  0  0  0  0  0  0  0  0
  -20.3210   64.4110   26.6460 C   0  0  0  0  0  0  0  0  0  0  0  0
  -21.5720   64.9140   27.0130 C   0  0  0  0  0  0  0  0  0  0  0  0
  -22.7460   64.2340   26.6460 C   0  0  0  0  0  0  0  0  0  0  0  0
  -22.6460   63.0300   25.9400 C   0  0  0  0  0  0  0  0  0  0  0  0
  -21.3970   62.5260   25.5720 C   0  0  0  0  0  0  0  0  0  0  0  0
  -24.0190   64.6990   27.0090 O   0  0  0  0  0  0  0  0  0  0  0  0
  -25.0080   65.1430   26.1200 C   0  0  0  0  0  0  0  0  0  0  0  0
  -26.3710   64.8690   26.3230 C   0  0  0  0  0  0  0  0  0  0  0  0
  -27.3290   65.3430   25.4220 C   0  0  0  0  0  0  0  0  0  0  0  0
  -26.9440   66.1080   24.3080 C   0  0  0  0  0  0  0  0  0  0  0  0
  -25.5800   66.3960   24.1200 C   0  0  0  0  0  0  0  0  0  0  0  0
  -24.6250   65.9220   25.0240 C   0  0  0  0  0  0  0  0  0  0  0  0
  -27.9330   66.5950   23.3830 N   0  0  0  0  0  0  0  0  0  0  0  0
  -27.7140   66.5910   22.1540 O   0  0  0  0  0  0  0  0  0  0  0  0
  -29.1400   67.0750   23.8380 O   0  0  0  0  0  0  0  0  0  0  0  0
  -17.7920   64.6120   24.3420 C   0  0  0  0  0  0  0  0  0  0  0  0
  -17.3480   63.8250   23.1070 C   0  0  0  0  0  0  0  0  0  0  0  0
  -17.2060   64.7100   22.0000 O   0  0  0  0  0  0  0  0  0  0  0  0
  -16.4110   64.4150   20.8900 C   0  0  0  0  0  0  0  0  0  0  0  0
  -16.8390   64.6060   19.7200 O   0  0  0  0  0  0  0  0  0  0  0  0
  -15.0150   63.9240   21.1050 C   0  0  0  0  0  0  0  0  0  0  0  0
  -14.1900   64.0970   19.8240 C   0  0  0  0  0  0  0  0  0  0  0  0
  -13.2120   65.2350   19.9030 C   0  0  0  0  0  0  0  0  0  0  0  0
  -11.9850   65.0340   20.1100 O   0  0  0  0  0  0  0  0  0  0  0  0
  -13.6720   66.5360   19.7450 O   0  0  0  0  0  0  0  0  0  0  0  0
  -16.0570   64.9710   26.4190 O   0  0  0  0  0  0  0  0  0  0  0  0
  -16.2700   65.9470   26.5900 H   0  0  0  0  0  0  0  0  0  0  0  0
  -16.9800   63.0840   27.7870 C   0  0  0  0  0  0  0  0  0  0  0  0
  -17.6960   63.9080   29.2000 Cl  0  0  0  0  0  0  0  0  0  0  0  0
  -15.2960   62.6450   28.1600 Cl  0  0  0  0  0  0  0  0  0  0  0  0
  1 30  1  6  0  0  0
  1 32  1  0  0  0  0
  2  1  1  0  0  0  0
  3  2  1  0  0  0  0
  3  4  1  0  0  0  0
  4  5  1  0  0  0  0
  5  6  2  0  0  0  0
  7 10  1  0  0  0  0
  7  6  1  0  0  0  0
  8  7  2  0  0  0  0
  9  4  2  0  0  0  0
  9  8  1  0  0  0  0
 11 12  1  0  0  0  0
 11 10  1  0  0  0  0
 13 12  2  0  0  0  0
 14 13  1  0  0  0  0
 15 14  2  0  0  0  0
 15 16  1  0  0  0  0
 16 11  2  0  0  0  0
 17 19  2  0  0  0  0
 17 14  1  0  0  0  0
 18 17  2  0  0  0  0
 20  2  1  0  0  0  0
 21 20  1  0  0  0  0
 22 21  1  0  0  0  0
 23 25  1  0  0  0  0
 23 22  1  0  0  0  0
 24 23  2  0  0  0  0
 26 27  1  0  0  0  0
 26 25  1  0  0  0  0
 27 28  1  0  0  0  0
 29 27  2  0  0  0  0
 30 31  1  0  0  0  0
 32 34  1  0  0  0  0
 32 33  1  0  0  0  0
M  END
>  <REMARK>
 VINA RESULT:      -7.2      1.837      2.165
  14 active torsions:
  status: ('A' for Active; 'I' for Inactive)
    1  A    between atoms: O1_2  and  C1_3 
    2  A    between atoms: C1_3  and  C21_32 
    3  A    between atoms: N1_4  and  C2_5 
    4  A    between atoms: N1_4  and  C15_22 
    5  A    between atoms: C2_5  and  C3_6 
    6  A    between atoms: C6_9  and  O2_10 
    7  A    between atoms: O2_10  and  C7_11 
    8  A    between atoms: C10_14  and  N2_15 
    9  A    between atoms: C15_22  and  C16_23 
   10  A    between atoms: C16_23  and  O5_24 
   11  A    between atoms: O5_24  and  C17_25 
   12  A    between atoms: C17_25  and  C18_27 
   13  A    between atoms: C18_27  and  C19_28 
   14  A    between atoms: C19_28  and  C20_29 

>  <TORSDO>
F 14

$$$$
../pdbqt/decoy.vina_out.49.pdbqt
 OpenBabel06052021513D

 34 35  0  0  1  0  0  0  0  0999 V2000
  -17.3880   63.6850   24.1720 C   0  0  2  0  0  0  0  0  0  0  0  0
  -18.1540   64.6020   23.6060 N   0  0  0  0  0  0  0  0  0  0  0  0
  -18.6920   65.7820   24.3160 C   0  0  0  0  0  0  0  0  0  0  0  0
  -20.0450   65.4820   24.9140 C   0  0  0  0  0  0  0  0  0  0  0  0
  -20.7910   64.3820   24.4590 C   0  0  0  0  0  0  0  0  0  0  0  0
  -22.0450   64.1000   25.0080 C   0  0  0  0  0  0  0  0  0  0  0  0
  -22.5680   64.9070   26.0330 C   0  0  0  0  0  0  0  0  0  0  0  0
  -21.8350   66.0160   26.4710 C   0  0  0  0  0  0  0  0  0  0  0  0
  -20.5820   66.2990   25.9230 C   0  0  0  0  0  0  0  0  0  0  0  0
  -23.8290   64.6670   26.5970 O   0  0  0  0  0  0  0  0  0  0  0  0
  -25.0590   65.0290   26.0280 C   0  0  0  0  0  0  0  0  0  0  0  0
  -26.2830   64.5690   26.5410 C   0  0  0  0  0  0  0  0  0  0  0  0
  -27.4880   64.9650   25.9550 C   0  0  0  0  0  0  0  0  0  0  0  0
  -27.4940   65.8380   24.8540 C   0  0  0  0  0  0  0  0  0  0  0  0
  -26.2660   66.3120   24.3560 C   0  0  0  0  0  0  0  0  0  0  0  0
  -25.0620   65.9140   24.9450 C   0  0  0  0  0  0  0  0  0  0  0  0
  -28.7370   66.2450   24.2530 N   0  0  0  0  0  0  0  0  0  0  0  0
  -28.9200   67.4300   23.9050 O   0  0  0  0  0  0  0  0  0  0  0  0
  -29.7480   65.3330   24.0540 O   0  0  0  0  0  0  0  0  0  0  0  0
  -18.5190   64.4730   22.1790 C   0  0  0  0  0  0  0  0  0  0  0  0
  -18.0570   65.6920   21.3770 C   0  0  0  0  0  0  0  0  0  0  0  0
  -16.6820   65.5490   21.0360 O   0  0  0  0  0  0  0  0  0  0  0  0
  -15.6640   66.2640   21.6730 C   0  0  0  0  0  0  0  0  0  0  0  0
  -15.8200   66.7040   22.8450 O   0  0  0  0  0  0  0  0  0  0  0  0
  -14.3580   66.4510   20.9720 C   0  0  0  0  0  0  0  0  0  0  0  0
  -13.3180   65.4620   21.5150 C   0  0  0  0  0  0  0  0  0  0  0  0
  -13.5050   64.0660   20.9900 C   0  0  0  0  0  0  0  0  0  0  0  0
  -13.6130   63.0810   21.7690 O   0  0  0  0  0  0  0  0  0  0  0  0
  -13.5600   63.8600   19.6180 O   0  0  0  0  0  0  0  0  0  0  0  0
  -16.9730   62.5880   23.4080 O   0  0  0  0  0  0  0  0  0  0  0  0
  -15.9990   62.3810   23.2250 H   0  0  0  0  0  0  0  0  0  0  0  0
  -16.9950   63.7290   25.6410 C   0  0  0  0  0  0  0  0  0  0  0  0
  -15.4400   62.9080   25.9500 Cl  0  0  0  0  0  0  0  0  0  0  0  0
  -18.2680   62.9510   26.6130 Cl  0  0  0  0  0  0  0  0  0  0  0  0
  1 30  1  1  0  0  0
  1 32  1  0  0  0  0
  2  1  1  0  0  0  0
  2  3  1  0  0  0  0
  3  4  1  0  0  0  0
  4  9  1  0  0  0  0
  5  4  2  0  0  0  0
  5  6  1  0  0  0  0
  6  7  2  0  0  0  0
  7  8  1  0  0  0  0
  7 10  1  0  0  0  0
  9  8  2  0  0  0  0
 11 12  1  0  0  0  0
 11 10  1  0  0  0  0
 13 12  2  0  0  0  0
 14 13  1  0  0  0  0
 15 14  2  0  0  0  0
 15 16  1  0  0  0  0
 16 11  2  0  0  0  0
 17 14  1  0  0  0  0
 18 17  2  0  0  0  0
 19 17  2  0  0  0  0
 20  2  1  0  0  0  0
 21 20  1  0  0  0  0
 22 21  1  0  0  0  0
 22 23  1  0  0  0  0
 23 24  2  0  0  0  0
 25 26  1  0  0  0  0
 25 23  1  0  0  0  0
 27 26  1  0  0  0  0
 27 28  1  0  0  0  0
 29 27  2  0  0  0  0
 31 30  1  0  0  0  0
 32 33  1  0  0  0  0
 32 34  1  0  0  0  0
M  END
>  <REMARK>
 VINA RESULT:      -7.2      1.518      2.373
  14 active torsions:
  status: ('A' for Active; 'I' for Inactive)
    1  A    between atoms: O1_2  and  C1_3 
    2  A    between atoms: C1_3  and  C21_32 
    3  A    between atoms: N1_4  and  C2_5 
    4  A    between atoms: N1_4  and  C15_22 
    5  A    between atoms: C2_5  and  C3_6 
    6  A    between atoms: C6_9  and  O2_10 
    7  A    between atoms: O2_10  and  C7_11 
    8  A    between atoms: C10_14  and  N2_15 
    9  A    between atoms: C15_22  and  C16_23 
   10  A    between atoms: C16_23  and  O5_24 
   11  A    between atoms: O5_24  and  C17_25 
   12  A    between atoms: C17_25  and  C18_27 
   13  A    between atoms: C18_27  and  C19_28 
   14  A    between atoms: C19_28  and  C20_29 

>  <TORSDO>
F 14

$$$$
