../pdbqt/decoy.vina_out.52.pdbqt
 OpenBabel06052021513D

 28 30  0  0  1  0  0  0  0  0999 V2000
  -26.7130   65.8790   24.7010 C   0  0  0  0  0  0  0  0  0  0  0  0
  -26.6440   65.0620   25.8390 C   0  0  0  0  0  0  0  0  0  0  0  0
  -25.4180   64.8300   26.4720 C   0  0  0  0  0  0  0  0  0  0  0  0
  -24.2350   65.3930   25.9660 C   0  0  0  0  0  0  0  0  0  0  0  0
  -24.3110   66.2310   24.8400 C   0  0  0  0  0  0  0  0  0  0  0  0
  -25.5360   66.4710   24.2050 C   0  0  0  0  0  0  0  0  0  0  0  0
  -25.5500   67.5350   22.8010 Cl  0  0  0  0  0  0  0  0  0  0  0  0
  -22.9720   65.2120   26.6520 N   0  0  0  0  0  0  0  0  0  0  0  0
  -22.8050   63.8380   27.1830 C   0  0  2  0  0  0  0  0  0  0  0  0
  -23.6740   63.6470   28.3550 N   0  0  0  0  0  0  0  0  0  0  0  0
  -25.3350   63.7940   27.8780 S   0  0  0  0  0  0  0  0  0  0  0  0
  -26.1230   64.4000   29.0050 O   0  0  0  0  0  0  0  0  0  0  0  0
  -25.8880   62.4360   27.5440 O   0  0  0  0  0  0  0  0  0  0  0  0
  -22.9210   65.9040   27.4360 H   0  0  0  0  0  0  0  0  0  0  0  0
  -22.1960   65.4280   25.9860 H   0  0  0  0  0  0  0  0  0  0  0  0
  -23.5560   62.6690   28.7090 H   0  0  0  0  0  0  0  0  0  0  0  0
  -28.2760   66.1590   23.9230 S   0  0  0  0  0  0  0  0  0  0  0  0
  -28.0990   66.3310   22.4400 O   0  0  0  0  0  0  0  0  0  0  0  0
  -28.9000   67.4070   24.4830 O   0  0  0  0  0  0  0  0  0  0  0  0
  -29.3140   64.8060   24.2150 N   0  0  0  0  0  0  0  0  0  0  0  0
  -28.8180   63.9580   23.8640 H   0  0  0  0  0  0  0  0  0  0  0  0
  -29.3960   64.7020   25.2520 H   0  0  0  0  0  0  0  0  0  0  0  0
  -21.3330   63.5910   27.6090 C   0  0  0  0  0  0  0  0  0  0  0  0
  -20.4700   62.8890   26.5350 C   0  0  0  0  0  0  0  0  0  0  0  0
  -21.3320   62.2520   25.4440 C   0  0  0  0  0  0  0  0  0  0  0  0
  -20.5090   62.3020   24.1580 C   0  0  0  0  0  0  0  0  0  0  0  0
  -19.2840   63.1650   24.4470 C   0  0  0  0  0  0  0  0  0  0  0  0
  -19.5420   63.8390   25.7840 C   0  0  0  0  0  0  0  0  0  0  0  0
  1  2  1  0  0  0  0
  2  3  2  0  0  0  0
  3 11  1  0  0  0  0
  4  3  1  0  0  0  0
  4  8  1  0  0  0  0
  5  4  2  0  0  0  0
  6  1  2  0  0  0  0
  6  5  1  0  0  0  0
  7  6  1  0  0  0  0
  8  9  1  0  0  0  0
  8 14  1  0  0  0  0
  9 23  1  1  0  0  0
  9 10  1  0  0  0  0
 10 16  1  0  0  0  0
 11 10  1  0  0  0  0
 11 12  2  0  0  0  0
 13 11  2  0  0  0  0
 15  8  1  0  0  0  0
 17 20  1  0  0  0  0
 17 19  2  0  0  0  0
 17  1  1  0  0  0  0
 18 17  2  0  0  0  0
 20 22  1  0  0  0  0
 21 20  1  0  0  0  0
 24 23  1  0  0  0  0
 25 24  1  0  0  0  0
 26 27  1  0  0  0  0
 26 25  1  0  0  0  0
 27 28  1  0  0  0  0
 28 24  1  0  0  0  0
M  END
>  <MODEL>
1

>  <REMARK>
 VINA RESULT:      -8.6      0.000      0.000
  4 active torsions:
  status: ('A' for Active; 'I' for Inactive)
    1  A    between atoms: N1_1  and  S1_2 
    2  A    between atoms: S1_2  and  C1_5 
    3  A    between atoms: C7_13  and  C8_14 
    4  A    between atoms: C8_14  and  C9_15 

>  <TORSDO>
F 4

$$$$
../pdbqt/decoy.vina_out.52.pdbqt
 OpenBabel06052021513D

 28 30  0  0  1  0  0  0  0  0999 V2000
  -19.9880   64.0220   23.4290 C   0  0  0  0  0  0  0  0  0  0  0  0
  -20.3000   64.8800   24.4930 C   0  0  0  0  0  0  0  0  0  0  0  0
  -21.5170   64.7540   25.1720 C   0  0  0  0  0  0  0  0  0  0  0  0
  -22.4530   63.7810   24.7880 C   0  0  0  0  0  0  0  0  0  0  0  0
  -22.1270   62.9060   23.7370 C   0  0  0  0  0  0  0  0  0  0  0  0
  -20.9090   63.0240   23.0560 C   0  0  0  0  0  0  0  0  0  0  0  0
  -20.5720   61.8880   21.7510 Cl  0  0  0  0  0  0  0  0  0  0  0  0
  -23.6860   63.5990   25.5260 N   0  0  0  0  0  0  0  0  0  0  0  0
  -24.2930   64.8860   25.9430 C   0  0  2  0  0  0  0  0  0  0  0  0
  -23.5100   65.4740   27.0420 N   0  0  0  0  0  0  0  0  0  0  0  0
  -21.9100   65.8410   26.4850 S   0  0  0  0  0  0  0  0  0  0  0  0
  -20.9350   65.6500   27.6130 O   0  0  0  0  0  0  0  0  0  0  0  0
  -21.8550   67.2640   26.0020 O   0  0  0  0  0  0  0  0  0  0  0  0
  -23.4810   63.0140   26.3700 H   0  0  0  0  0  0  0  0  0  0  0  0
  -24.3590   63.0700   24.9270 H   0  0  0  0  0  0  0  0  0  0  0  0
  -23.9420   66.3880   27.3150 H   0  0  0  0  0  0  0  0  0  0  0  0
  -18.4420   64.2010   22.5900 S   0  0  0  0  0  0  0  0  0  0  0  0
  -17.7000   65.4020   23.1090 O   0  0  0  0  0  0  0  0  0  0  0  0
  -18.6880   64.3850   21.1190 O   0  0  0  0  0  0  0  0  0  0  0  0
  -17.4800   62.7870   22.8500 N   0  0  0  0  0  0  0  0  0  0  0  0
  -16.5270   63.1110   23.1270 H   0  0  0  0  0  0  0  0  0  0  0  0
  -17.8840   62.2900   23.6760 H   0  0  0  0  0  0  0  0  0  0  0  0
  -25.7510   64.6710   26.4300 C   0  0  0  0  0  0  0  0  0  0  0  0
  -26.8090   65.4800   25.6440 C   0  0  0  0  0  0  0  0  0  0  0  0
  -26.2960   65.8900   24.2630 C   0  0  0  0  0  0  0  0  0  0  0  0
  -27.5170   65.9450   23.3470 C   0  0  0  0  0  0  0  0  0  0  0  0
  -28.6860   65.3490   24.1270 C   0  0  0  0  0  0  0  0  0  0  0  0
  -28.0870   64.6960   25.3610 C   0  0  0  0  0  0  0  0  0  0  0  0
  1  2  1  0  0  0  0
  2  3  2  0  0  0  0
  3 11  1  0  0  0  0
  4  3  1  0  0  0  0
  4  8  1  0  0  0  0
  5  4  2  0  0  0  0
  6  1  2  0  0  0  0
  6  5  1  0  0  0  0
  7  6  1  0  0  0  0
  8  9  1  0  0  0  0
  8 14  1  0  0  0  0
  9 23  1  1  0  0  0
  9 10  1  0  0  0  0
 10 16  1  0  0  0  0
 11 10  1  0  0  0  0
 11 12  2  0  0  0  0
 13 11  2  0  0  0  0
 15  8  1  0  0  0  0
 17 20  1  0  0  0  0
 17 18  2  0  0  0  0
 17  1  1  0  0  0  0
 19 17  2  0  0  0  0
 20 21  1  0  0  0  0
 20 22  1  0  0  0  0
 24 23  1  0  0  0  0
 25 24  1  0  0  0  0
 26 27  1  0  0  0  0
 26 25  1  0  0  0  0
 27 28  1  0  0  0  0
 28 24  1  0  0  0  0
M  END
>  <REMARK>
 VINA RESULT:      -8.0      4.627      7.078
  4 active torsions:
  status: ('A' for Active; 'I' for Inactive)
    1  A    between atoms: N1_1  and  S1_2 
    2  A    between atoms: S1_2  and  C1_5 
    3  A    between atoms: C7_13  and  C8_14 
    4  A    between atoms: C8_14  and  C9_15 

>  <TORSDO>
F 4

$$$$
../pdbqt/decoy.vina_out.52.pdbqt
 OpenBabel06052021513D

 28 30  0  0  1  0  0  0  0  0999 V2000
  -26.4640   65.0830   25.8470 C   0  0  0  0  0  0  0  0  0  0  0  0
  -25.2910   64.7990   26.5620 C   0  0  0  0  0  0  0  0  0  0  0  0
  -24.0730   65.3740   26.1830 C   0  0  0  0  0  0  0  0  0  0  0  0
  -24.0010   66.2280   25.0700 C   0  0  0  0  0  0  0  0  0  0  0  0
  -25.1820   66.5300   24.3710 C   0  0  0  0  0  0  0  0  0  0  0  0
  -26.4050   65.9620   24.7480 C   0  0  0  0  0  0  0  0  0  0  0  0
  -27.8430   66.3920   23.8240 Cl  0  0  0  0  0  0  0  0  0  0  0  0
  -22.7580   66.8800   24.7100 N   0  0  0  0  0  0  0  0  0  0  0  0
  -21.5840   65.9860   24.8600 C   0  0  2  0  0  0  0  0  0  0  0  0
  -21.2810   65.7960   26.2880 N   0  0  0  0  0  0  0  0  0  0  0  0
  -22.6100   64.9990   27.0650 S   0  0  0  0  0  0  0  0  0  0  0  0
  -22.7270   65.4930   28.4790 O   0  0  0  0  0  0  0  0  0  0  0  0
  -22.3810   63.5130   27.0630 O   0  0  0  0  0  0  0  0  0  0  0  0
  -22.6410   67.7240   25.3180 H   0  0  0  0  0  0  0  0  0  0  0  0
  -22.8270   67.2060   23.7210 H   0  0  0  0  0  0  0  0  0  0  0  0
  -20.4600   65.1530   26.3780 H   0  0  0  0  0  0  0  0  0  0  0  0
  -27.9900   64.3460   26.3500 S   0  0  0  0  0  0  0  0  0  0  0  0
  -28.7400   63.8270   25.1540 O   0  0  0  0  0  0  0  0  0  0  0  0
  -28.8410   65.3740   27.0420 O   0  0  0  0  0  0  0  0  0  0  0  0
  -27.6670   63.0330   27.4280 N   0  0  0  0  0  0  0  0  0  0  0  0
  -27.8840   62.1520   26.9120 H   0  0  0  0  0  0  0  0  0  0  0  0
  -26.6380   63.0330   27.6090 H   0  0  0  0  0  0  0  0  0  0  0  0
  -20.3390   66.5970   24.1640 C   0  0  0  0  0  0  0  0  0  0  0  0
  -19.3650   65.5510   23.5730 C   0  0  0  0  0  0  0  0  0  0  0  0
  -20.0740   64.2350   23.2530 C   0  0  0  0  0  0  0  0  0  0  0  0
  -19.3400   63.6260   22.0590 C   0  0  0  0  0  0  0  0  0  0  0  0
  -18.3690   64.6860   21.5470 C   0  0  0  0  0  0  0  0  0  0  0  0
  -18.7410   65.9820   22.2480 C   0  0  0  0  0  0  0  0  0  0  0  0
  1 17  1  0  0  0  0
  1  2  2  0  0  0  0
  3  2  1  0  0  0  0
  3 11  1  0  0  0  0
  4  3  2  0  0  0  0
  5  6  2  0  0  0  0
  5  4  1  0  0  0  0
  6  1  1  0  0  0  0
  7  6  1  0  0  0  0
  8  9  1  0  0  0  0
  8  4  1  0  0  0  0
  8 14  1  0  0  0  0
  9 23  1  6  0  0  0
  9 10  1  0  0  0  0
 10 16  1  0  0  0  0
 10 11  1  0  0  0  0
 11 12  2  0  0  0  0
 13 11  2  0  0  0  0
 15  8  1  0  0  0  0
 17 19  2  0  0  0  0
 17 20  1  0  0  0  0
 18 17  2  0  0  0  0
 20 22  1  0  0  0  0
 21 20  1  0  0  0  0
 24 23  1  0  0  0  0
 25 24  1  0  0  0  0
 26 25  1  0  0  0  0
 27 26  1  0  0  0  0
 27 28  1  0  0  0  0
 28 24  1  0  0  0  0
M  END
>  <REMARK>
 VINA RESULT:      -8.0      2.696      3.116
  4 active torsions:
  status: ('A' for Active; 'I' for Inactive)
    1  A    between atoms: N1_1  and  S1_2 
    2  A    between atoms: S1_2  and  C1_5 
    3  A    between atoms: C7_13  and  C8_14 
    4  A    between atoms: C8_14  and  C9_15 

>  <TORSDO>
F 4

$$$$
../pdbqt/decoy.vina_out.52.pdbqt
 OpenBabel06052021513D

 28 30  0  0  1  0  0  0  0  0999 V2000
  -17.0950   64.1190   22.7650 C   0  0  0  0  0  0  0  0  0  0  0  0
  -18.0770   63.2520   23.2660 C   0  0  0  0  0  0  0  0  0  0  0  0
  -19.3130   63.7520   23.6920 C   0  0  0  0  0  0  0  0  0  0  0  0
  -19.5820   65.1290   23.6430 C   0  0  0  0  0  0  0  0  0  0  0  0
  -18.6050   65.9920   23.1170 C   0  0  0  0  0  0  0  0  0  0  0  0
  -17.3680   65.4980   22.6850 C   0  0  0  0  0  0  0  0  0  0  0  0
  -16.1960   66.6430   22.0360 Cl  0  0  0  0  0  0  0  0  0  0  0  0
  -20.8810   65.6480   24.0190 N   0  0  0  0  0  0  0  0  0  0  0  0
  -21.4420   64.9670   25.2110 C   0  0  2  0  0  0  0  0  0  0  0  0
  -21.8870   63.6120   24.8480 N   0  0  0  0  0  0  0  0  0  0  0  0
  -20.5260   62.6690   24.3350 S   0  0  0  0  0  0  0  0  0  0  0  0
  -20.9630   61.7040   23.2700 O   0  0  0  0  0  0  0  0  0  0  0  0
  -19.9630   61.9130   25.5070 O   0  0  0  0  0  0  0  0  0  0  0  0
  -21.5300   65.5310   23.2060 H   0  0  0  0  0  0  0  0  0  0  0  0
  -20.7900   66.6710   24.2090 H   0  0  0  0  0  0  0  0  0  0  0  0
  -22.2670   63.1390   25.7010 H   0  0  0  0  0  0  0  0  0  0  0  0
  -15.5430   63.4610   22.2300 S   0  0  0  0  0  0  0  0  0  0  0  0
  -14.4140   64.1030   22.9870 O   0  0  0  0  0  0  0  0  0  0  0  0
  -15.3580   63.7370   20.7640 O   0  0  0  0  0  0  0  0  0  0  0  0
  -15.5140   61.7550   22.5120 N   0  0  0  0  0  0  0  0  0  0  0  0
  -16.4880   61.4040   22.3710 H   0  0  0  0  0  0  0  0  0  0  0  0
  -14.9270   61.3310   21.7580 H   0  0  0  0  0  0  0  0  0  0  0  0
  -22.6540   65.7560   25.7730 C   0  0  0  0  0  0  0  0  0  0  0  0
  -24.0100   65.3790   25.1310 C   0  0  0  0  0  0  0  0  0  0  0  0
  -25.0670   65.0590   26.1880 C   0  0  0  0  0  0  0  0  0  0  0  0
  -26.4130   65.4630   25.5910 C   0  0  0  0  0  0  0  0  0  0  0  0
  -26.1180   66.2220   24.3000 C   0  0  0  0  0  0  0  0  0  0  0  0
  -24.6240   66.5040   24.3030 C   0  0  0  0  0  0  0  0  0  0  0  0
  1  2  1  0  0  0  0
  2  3  2  0  0  0  0
  3 11  1  0  0  0  0
  4  3  1  0  0  0  0
  4  8  1  0  0  0  0
  5  4  2  0  0  0  0
  6  1  2  0  0  0  0
  6  5  1  0  0  0  0
  7  6  1  0  0  0  0
  8 15  1  0  0  0  0
  8  9  1  0  0  0  0
  9 23  1  6  0  0  0
 10  9  1  0  0  0  0
 10 16  1  0  0  0  0
 11 10  1  0  0  0  0
 11 13  2  0  0  0  0
 12 11  2  0  0  0  0
 14  8  1  0  0  0  0
 17 20  1  0  0  0  0
 17  1  1  0  0  0  0
 17 18  2  0  0  0  0
 19 17  2  0  0  0  0
 21 20  1  0  0  0  0
 22 20  1  0  0  0  0
 24 23  1  0  0  0  0
 24 25  1  0  0  0  0
 26 25  1  0  0  0  0
 27 28  1  0  0  0  0
 27 26  1  0  0  0  0
 28 24  1  0  0  0  0
M  END
>  <REMARK>
 VINA RESULT:      -8.0      5.907      8.332
  4 active torsions:
  status: ('A' for Active; 'I' for Inactive)
    1  A    between atoms: N1_1  and  S1_2 
    2  A    between atoms: S1_2  and  C1_5 
    3  A    between atoms: C7_13  and  C8_14 
    4  A    between atoms: C8_14  and  C9_15 

>  <TORSDO>
F 4

$$$$
../pdbqt/decoy.vina_out.52.pdbqt
 OpenBabel06052021513D

 28 30  0  0  1  0  0  0  0  0999 V2000
  -19.5840   67.0170   26.4930 C   0  0  0  0  0  0  0  0  0  0  0  0
  -20.1640   65.7930   26.1300 C   0  0  0  0  0  0  0  0  0  0  0  0
  -21.4030   65.7600   25.4810 C   0  0  0  0  0  0  0  0  0  0  0  0
  -22.0950   66.9500   25.2010 C   0  0  0  0  0  0  0  0  0  0  0  0
  -21.4990   68.1760   25.5440 C   0  0  0  0  0  0  0  0  0  0  0  0
  -20.2570   68.2160   26.1890 C   0  0  0  0  0  0  0  0  0  0  0  0
  -19.5750   69.7920   26.5840 Cl  0  0  0  0  0  0  0  0  0  0  0  0
  -23.3450   66.9310   24.4710 N   0  0  0  0  0  0  0  0  0  0  0  0
  -24.2230   65.8060   24.8760 C   0  0  2  0  0  0  0  0  0  0  0  0
  -23.6870   64.5400   24.3500 N   0  0  0  0  0  0  0  0  0  0  0  0
  -22.1310   64.2300   25.0490 S   0  0  0  0  0  0  0  0  0  0  0  0
  -21.2680   63.5210   24.0450 O   0  0  0  0  0  0  0  0  0  0  0  0
  -22.2890   63.3770   26.2770 O   0  0  0  0  0  0  0  0  0  0  0  0
  -23.1290   66.8600   23.4490 H   0  0  0  0  0  0  0  0  0  0  0  0
  -23.8400   67.8370   24.6300 H   0  0  0  0  0  0  0  0  0  0  0  0
  -24.3080   63.7550   24.6560 H   0  0  0  0  0  0  0  0  0  0  0  0
  -18.0150   67.0300   27.3090 S   0  0  0  0  0  0  0  0  0  0  0  0
  -18.1250   67.7130   28.6440 O   0  0  0  0  0  0  0  0  0  0  0  0
  -17.0170   67.7750   26.4680 O   0  0  0  0  0  0  0  0  0  0  0  0
  -17.4790   65.4030   27.5490 N   0  0  0  0  0  0  0  0  0  0  0  0
  -17.3710   64.9730   26.6040 H   0  0  0  0  0  0  0  0  0  0  0  0
  -16.5230   65.4550   27.9690 H   0  0  0  0  0  0  0  0  0  0  0  0
  -25.6590   66.0060   24.3260 C   0  0  0  0  0  0  0  0  0  0  0  0
  -26.7790   65.7170   25.3530 C   0  0  0  0  0  0  0  0  0  0  0  0
  -28.0380   65.1700   24.6780 C   0  0  0  0  0  0  0  0  0  0  0  0
  -28.7040   64.2420   25.6930 C   0  0  0  0  0  0  0  0  0  0  0  0
  -27.7250   64.0720   26.8500 C   0  0  0  0  0  0  0  0  0  0  0  0
  -26.4020   64.6530   26.3800 C   0  0  0  0  0  0  0  0  0  0  0  0
  1 17  1  0  0  0  0
  2  1  2  0  0  0  0
  3  2  1  0  0  0  0
  4  3  2  0  0  0  0
  4  5  1  0  0  0  0
  5  6  2  0  0  0  0
  6  1  1  0  0  0  0
  6  7  1  0  0  0  0
  8 15  1  0  0  0  0
  8  9  1  0  0  0  0
  8  4  1  0  0  0  0
  9 23  1  6  0  0  0
 10 16  1  0  0  0  0
 10  9  1  0  0  0  0
 10 11  1  0  0  0  0
 11  3  1  0  0  0  0
 11 13  2  0  0  0  0
 12 11  2  0  0  0  0
 14  8  1  0  0  0  0
 17 20  1  0  0  0  0
 17 18  2  0  0  0  0
 19 17  2  0  0  0  0
 20 22  1  0  0  0  0
 21 20  1  0  0  0  0
 23 24  1  0  0  0  0
 24 28  1  0  0  0  0
 25 24  1  0  0  0  0
 25 26  1  0  0  0  0
 26 27  1  0  0  0  0
 28 27  1  0  0  0  0
M  END
>  <REMARK>
 VINA RESULT:      -7.8      4.571      7.332
  4 active torsions:
  status: ('A' for Active; 'I' for Inactive)
    1  A    between atoms: N1_1  and  S1_2 
    2  A    between atoms: S1_2  and  C1_5 
    3  A    between atoms: C7_13  and  C8_14 
    4  A    between atoms: C8_14  and  C9_15 

>  <TORSDO>
F 4

$$$$
../pdbqt/decoy.vina_out.52.pdbqt
 OpenBabel06052021513D

 28 30  0  0  1  0  0  0  0  0999 V2000
  -20.0620   64.2080   23.3160 C   0  0  0  0  0  0  0  0  0  0  0  0
  -20.3910   65.0220   24.4090 C   0  0  0  0  0  0  0  0  0  0  0  0
  -21.4000   64.6400   25.2990 C   0  0  0  0  0  0  0  0  0  0  0  0
  -22.1130   63.4460   25.1020 C   0  0  0  0  0  0  0  0  0  0  0  0
  -21.7640   62.6200   24.0200 C   0  0  0  0  0  0  0  0  0  0  0  0
  -20.7520   62.9940   23.1280 C   0  0  0  0  0  0  0  0  0  0  0  0
  -20.3710   61.9040   21.7970 Cl  0  0  0  0  0  0  0  0  0  0  0  0
  -23.1130   63.0090   26.0550 N   0  0  0  0  0  0  0  0  0  0  0  0
  -23.9440   64.1290   26.5610 C   0  0  2  0  0  0  0  0  0  0  0  0
  -23.1560   64.9540   27.4920 N   0  0  0  0  0  0  0  0  0  0  0  0
  -21.8210   65.6700   26.6490 S   0  0  0  0  0  0  0  0  0  0  0  0
  -20.6500   65.7880   27.5830 O   0  0  0  0  0  0  0  0  0  0  0  0
  -22.2100   67.0320   26.1470 O   0  0  0  0  0  0  0  0  0  0  0  0
  -22.6250   62.5420   26.8540 H   0  0  0  0  0  0  0  0  0  0  0  0
  -23.7250   62.2990   25.5950 H   0  0  0  0  0  0  0  0  0  0  0  0
  -23.7500   65.7470   27.8280 H   0  0  0  0  0  0  0  0  0  0  0  0
  -18.7800   64.7120   22.2080 S   0  0  0  0  0  0  0  0  0  0  0  0
  -19.0030   64.1200   20.8440 O   0  0  0  0  0  0  0  0  0  0  0  0
  -17.4510   64.2390   22.7270 O   0  0  0  0  0  0  0  0  0  0  0  0
  -18.7770   66.4370   22.0800 N   0  0  0  0  0  0  0  0  0  0  0  0
  -19.7690   66.7530   22.1630 H   0  0  0  0  0  0  0  0  0  0  0  0
  -18.2710   66.8040   22.9180 H   0  0  0  0  0  0  0  0  0  0  0  0
  -25.1930   63.5910   27.3070 C   0  0  0  0  0  0  0  0  0  0  0  0
  -26.4730   64.4320   27.0900 C   0  0  0  0  0  0  0  0  0  0  0  0
  -26.4270   65.2040   25.7710 C   0  0  0  0  0  0  0  0  0  0  0  0
  -27.8710   65.3260   25.2900 C   0  0  0  0  0  0  0  0  0  0  0  0
  -28.7190   64.4370   26.1950 C   0  0  0  0  0  0  0  0  0  0  0  0
  -27.7430   63.5910   26.9980 C   0  0  0  0  0  0  0  0  0  0  0  0
  1  2  1  0  0  0  0
  2  3  2  0  0  0  0
  3 11  1  0  0  0  0
  4  3  1  0  0  0  0
  4  8  1  0  0  0  0
  5  4  2  0  0  0  0
  6  1  2  0  0  0  0
  6  5  1  0  0  0  0
  7  6  1  0  0  0  0
  8  9  1  0  0  0  0
  8 14  1  0  0  0  0
  9 23  1  1  0  0  0
  9 10  1  0  0  0  0
 10 16  1  0  0  0  0
 11 10  1  0  0  0  0
 11 12  2  0  0  0  0
 13 11  2  0  0  0  0
 15  8  1  0  0  0  0
 17 19  2  0  0  0  0
 17  1  1  0  0  0  0
 18 17  2  0  0  0  0
 20 21  1  0  0  0  0
 20 17  1  0  0  0  0
 20 22  1  0  0  0  0
 24 23  1  0  0  0  0
 25 24  1  0  0  0  0
 26 25  1  0  0  0  0
 26 27  1  0  0  0  0
 27 28  1  0  0  0  0
 28 24  1  0  0  0  0
M  END
>  <REMARK>
 VINA RESULT:      -7.7      4.592      6.895
  4 active torsions:
  status: ('A' for Active; 'I' for Inactive)
    1  A    between atoms: N1_1  and  S1_2 
    2  A    between atoms: S1_2  and  C1_5 
    3  A    between atoms: C7_13  and  C8_14 
    4  A    between atoms: C8_14  and  C9_15 

>  <TORSDO>
F 4

$$$$
../pdbqt/decoy.vina_out.52.pdbqt
 OpenBabel06052021513D

 28 30  0  0  1  0  0  0  0  0999 V2000
  -22.4500   63.3330   29.3930 C   0  0  0  0  0  0  0  0  0  0  0  0
  -23.7270   63.2790   29.9710 C   0  0  0  0  0  0  0  0  0  0  0  0
  -24.8700   63.2470   29.1660 C   0  0  0  0  0  0  0  0  0  0  0  0
  -24.7600   63.2870   27.7660 C   0  0  0  0  0  0  0  0  0  0  0  0
  -23.4780   63.3160   27.1890 C   0  0  0  0  0  0  0  0  0  0  0  0
  -22.3300   63.3440   27.9890 C   0  0  0  0  0  0  0  0  0  0  0  0
  -20.7600   63.3770   27.1910 Cl  0  0  0  0  0  0  0  0  0  0  0  0
  -25.9330   63.1870   26.9230 N   0  0  0  0  0  0  0  0  0  0  0  0
  -27.0850   63.9530   27.4580 C   0  0  2  0  0  0  0  0  0  0  0  0
  -27.6450   63.2590   28.6290 N   0  0  0  0  0  0  0  0  0  0  0  0
  -26.4600   63.2010   29.8930 S   0  0  0  0  0  0  0  0  0  0  0  0
  -26.6260   61.9260   30.6720 O   0  0  0  0  0  0  0  0  0  0  0  0
  -26.6350   64.3820   30.8070 O   0  0  0  0  0  0  0  0  0  0  0  0
  -26.1900   62.1760   26.8350 H   0  0  0  0  0  0  0  0  0  0  0  0
  -25.6900   63.5380   25.9690 H   0  0  0  0  0  0  0  0  0  0  0  0
  -28.4460   63.8180   29.0040 H   0  0  0  0  0  0  0  0  0  0  0  0
  -21.0220   63.3690   30.4340 S   0  0  0  0  0  0  0  0  0  0  0  0
  -20.2700   64.6580   30.2460 O   0  0  0  0  0  0  0  0  0  0  0  0
  -20.1130   62.2250   30.0810 O   0  0  0  0  0  0  0  0  0  0  0  0
  -21.5120   63.2380   32.0870 N   0  0  0  0  0  0  0  0  0  0  0  0
  -22.3030   62.5570   32.1190 H   0  0  0  0  0  0  0  0  0  0  0  0
  -20.7170   62.8030   32.6080 H   0  0  0  0  0  0  0  0  0  0  0  0
  -28.1950   64.0940   26.3840 C   0  0  0  0  0  0  0  0  0  0  0  0
  -28.0760   65.3630   25.5100 C   0  0  0  0  0  0  0  0  0  0  0  0
  -26.6430   65.5870   25.0280 C   0  0  0  0  0  0  0  0  0  0  0  0
  -26.7450   66.2810   23.6710 C   0  0  0  0  0  0  0  0  0  0  0  0
  -28.2150   66.2500   23.2650 C   0  0  0  0  0  0  0  0  0  0  0  0
  -28.9050   65.3000   24.2300 C   0  0  0  0  0  0  0  0  0  0  0  0
  1  2  1  0  0  0  0
  1 17  1  0  0  0  0
  3 11  1  0  0  0  0
  3  2  2  0  0  0  0
  4  3  1  0  0  0  0
  5  4  2  0  0  0  0
  5  6  1  0  0  0  0
  6  1  2  0  0  0  0
  7  6  1  0  0  0  0
  8  9  1  0  0  0  0
  8  4  1  0  0  0  0
  9 23  1  6  0  0  0
  9 10  1  0  0  0  0
 10 16  1  0  0  0  0
 10 11  1  0  0  0  0
 11 12  2  0  0  0  0
 11 13  2  0  0  0  0
 14  8  1  0  0  0  0
 15  8  1  0  0  0  0
 17 20  1  0  0  0  0
 18 17  2  0  0  0  0
 19 17  2  0  0  0  0
 20 21  1  0  0  0  0
 20 22  1  0  0  0  0
 24 23  1  0  0  0  0
 25 24  1  0  0  0  0
 26 25  1  0  0  0  0
 27 26  1  0  0  0  0
 27 28  1  0  0  0  0
 28 24  1  0  0  0  0
M  END
>  <REMARK>
 VINA RESULT:      -7.5      4.109      7.098
  4 active torsions:
  status: ('A' for Active; 'I' for Inactive)
    1  A    between atoms: N1_1  and  S1_2 
    2  A    between atoms: S1_2  and  C1_5 
    3  A    between atoms: C7_13  and  C8_14 
    4  A    between atoms: C8_14  and  C9_15 

>  <TORSDO>
F 4

$$$$
../pdbqt/decoy.vina_out.52.pdbqt
 OpenBabel06052021513D

 28 30  0  0  1  0  0  0  0  0999 V2000
  -19.3780   65.4000   25.1800 C   0  0  0  0  0  0  0  0  0  0  0  0
  -19.9360   65.4920   26.4640 C   0  0  0  0  0  0  0  0  0  0  0  0
  -21.1670   64.8900   26.7470 C   0  0  0  0  0  0  0  0  0  0  0  0
  -21.8720   64.2010   25.7470 C   0  0  0  0  0  0  0  0  0  0  0  0
  -21.2990   64.0890   24.4680 C   0  0  0  0  0  0  0  0  0  0  0  0
  -20.0650   64.6860   24.1790 C   0  0  0  0  0  0  0  0  0  0  0  0
  -19.4110   64.4990   22.5540 Cl  0  0  0  0  0  0  0  0  0  0  0  0
  -23.1140   63.5180   26.0460 N   0  0  0  0  0  0  0  0  0  0  0  0
  -23.9800   64.2910   26.9690 C   0  0  2  0  0  0  0  0  0  0  0  0
  -23.4190   64.2520   28.3300 N   0  0  0  0  0  0  0  0  0  0  0  0
  -21.8680   65.0250   28.3430 S   0  0  0  0  0  0  0  0  0  0  0  0
  -20.9820   64.3440   29.3470 O   0  0  0  0  0  0  0  0  0  0  0  0
  -22.0270   66.4760   28.7070 O   0  0  0  0  0  0  0  0  0  0  0  0
  -22.8840   62.5890   26.4710 H   0  0  0  0  0  0  0  0  0  0  0  0
  -23.6230   63.3420   25.1510 H   0  0  0  0  0  0  0  0  0  0  0  0
  -24.0320   64.8140   28.9650 H   0  0  0  0  0  0  0  0  0  0  0  0
  -17.8200   66.1680   24.8510 S   0  0  0  0  0  0  0  0  0  0  0  0
  -17.9120   67.0340   23.6250 O   0  0  0  0  0  0  0  0  0  0  0  0
  -16.7780   65.1100   24.6150 O   0  0  0  0  0  0  0  0  0  0  0  0
  -17.3640   67.1460   26.2020 N   0  0  0  0  0  0  0  0  0  0  0  0
  -16.6190   66.6270   26.7180 H   0  0  0  0  0  0  0  0  0  0  0  0
  -16.9200   68.0110   25.8170 H   0  0  0  0  0  0  0  0  0  0  0  0
  -25.4120   63.6970   27.0030 C   0  0  0  0  0  0  0  0  0  0  0  0
  -26.5260   64.7020   26.6250 C   0  0  0  0  0  0  0  0  0  0  0  0
  -26.1680   65.4960   25.3690 C   0  0  0  0  0  0  0  0  0  0  0  0
  -27.4870   65.8180   24.6690 C   0  0  0  0  0  0  0  0  0  0  0  0
  -28.5750   65.0210   25.3830 C   0  0  0  0  0  0  0  0  0  0  0  0
  -27.8570   64.0350   26.2900 C   0  0  0  0  0  0  0  0  0  0  0  0
  1  2  2  0  0  0  0
  2  3  1  0  0  0  0
  3 11  1  0  0  0  0
  4  8  1  0  0  0  0
  4  3  2  0  0  0  0
  5  4  1  0  0  0  0
  6  5  2  0  0  0  0
  6  1  1  0  0  0  0
  7  6  1  0  0  0  0
  8 14  1  0  0  0  0
  8  9  1  0  0  0  0
  9 23  1  1  0  0  0
  9 10  1  0  0  0  0
 10 11  1  0  0  0  0
 10 16  1  0  0  0  0
 11 13  2  0  0  0  0
 11 12  2  0  0  0  0
 15  8  1  0  0  0  0
 17  1  1  0  0  0  0
 17 20  1  0  0  0  0
 18 17  2  0  0  0  0
 19 17  2  0  0  0  0
 20 21  1  0  0  0  0
 22 20  1  0  0  0  0
 24 23  1  0  0  0  0
 25 24  1  0  0  0  0
 26 25  1  0  0  0  0
 26 27  1  0  0  0  0
 27 28  1  0  0  0  0
 28 24  1  0  0  0  0
M  END
>  <REMARK>
 VINA RESULT:      -7.2      4.414      7.009
  4 active torsions:
  status: ('A' for Active; 'I' for Inactive)
    1  A    between atoms: N1_1  and  S1_2 
    2  A    between atoms: S1_2  and  C1_5 
    3  A    between atoms: C7_13  and  C8_14 
    4  A    between atoms: C8_14  and  C9_15 

>  <TORSDO>
F 4

$$$$
../pdbqt/decoy.vina_out.52.pdbqt
 OpenBabel06052021513D

 28 30  0  0  1  0  0  0  0  0999 V2000
  -16.9670   63.5720   22.9450 C   0  0  0  0  0  0  0  0  0  0  0  0
  -17.6540   62.8050   23.8970 C   0  0  0  0  0  0  0  0  0  0  0  0
  -19.0520   62.8380   23.9590 C   0  0  0  0  0  0  0  0  0  0  0  0
  -19.7870   63.6540   23.0840 C   0  0  0  0  0  0  0  0  0  0  0  0
  -19.0960   64.4030   22.1160 C   0  0  0  0  0  0  0  0  0  0  0  0
  -17.6980   64.3710   22.0450 C   0  0  0  0  0  0  0  0  0  0  0  0
  -16.9060   65.3360   20.8020 Cl  0  0  0  0  0  0  0  0  0  0  0  0
  -21.2350   63.6440   23.0960 N   0  0  0  0  0  0  0  0  0  0  0  0
  -21.7920   63.5800   24.4700 C   0  0  2  0  0  0  0  0  0  0  0  0
  -21.5980   62.2300   25.0240 N   0  0  0  0  0  0  0  0  0  0  0  0
  -19.9030   61.8940   25.1610 S   0  0  0  0  0  0  0  0  0  0  0  0
  -19.6650   60.4300   24.9210 O   0  0  0  0  0  0  0  0  0  0  0  0
  -19.4220   62.2690   26.5350 O   0  0  0  0  0  0  0  0  0  0  0  0
  -21.5640   62.8190   22.5420 H   0  0  0  0  0  0  0  0  0  0  0  0
  -21.5790   64.5070   22.6180 H   0  0  0  0  0  0  0  0  0  0  0  0
  -21.9820   62.2040   25.9970 H   0  0  0  0  0  0  0  0  0  0  0  0
  -15.2010   63.5090   22.8860 S   0  0  0  0  0  0  0  0  0  0  0  0
  -14.6750   62.5640   23.9300 O   0  0  0  0  0  0  0  0  0  0  0  0
  -14.6410   64.8790   23.1510 O   0  0  0  0  0  0  0  0  0  0  0  0
  -14.6970   62.9640   21.3240 N   0  0  0  0  0  0  0  0  0  0  0  0
  -13.8350   63.4980   21.0760 H   0  0  0  0  0  0  0  0  0  0  0  0
  -14.4150   61.9620   21.4270 H   0  0  0  0  0  0  0  0  0  0  0  0
  -23.3090   63.9010   24.4610 C   0  0  0  0  0  0  0  0  0  0  0  0
  -23.8800   64.3110   25.8400 C   0  0  0  0  0  0  0  0  0  0  0  0
  -25.2410   64.9940   25.7090 C   0  0  0  0  0  0  0  0  0  0  0  0
  -26.0190   64.6570   26.9790 C   0  0  0  0  0  0  0  0  0  0  0  0
  -25.2110   63.6020   27.7290 C   0  0  0  0  0  0  0  0  0  0  0  0
  -24.1330   63.1270   26.7680 C   0  0  0  0  0  0  0  0  0  0  0  0
  1  2  2  0  0  0  0
  2  3  1  0  0  0  0
  3 11  1  0  0  0  0
  4  8  1  0  0  0  0
  4  3  2  0  0  0  0
  5  4  1  0  0  0  0
  6  5  2  0  0  0  0
  6  1  1  0  0  0  0
  7  6  1  0  0  0  0
  8  9  1  0  0  0  0
  9 23  1  6  0  0  0
  9 10  1  0  0  0  0
 10 11  1  0  0  0  0
 10 16  1  0  0  0  0
 11 13  2  0  0  0  0
 12 11  2  0  0  0  0
 14  8  1  0  0  0  0
 15  8  1  0  0  0  0
 17  1  1  0  0  0  0
 17 19  2  0  0  0  0
 17 18  2  0  0  0  0
 20 22  1  0  0  0  0
 20 17  1  0  0  0  0
 21 20  1  0  0  0  0
 23 24  1  0  0  0  0
 24 28  1  0  0  0  0
 25 24  1  0  0  0  0
 25 26  1  0  0  0  0
 26 27  1  0  0  0  0
 28 27  1  0  0  0  0
M  END
>  <REMARK>
 VINA RESULT:      -7.2      5.953      8.456
  4 active torsions:
  status: ('A' for Active; 'I' for Inactive)
    1  A    between atoms: N1_1  and  S1_2 
    2  A    between atoms: S1_2  and  C1_5 
    3  A    between atoms: C7_13  and  C8_14 
    4  A    between atoms: C8_14  and  C9_15 

>  <TORSDO>
F 4

$$$$
