../pdbqt/decoy.vina_out.24.pdbqt
 OpenBabel06052021513D

 22 23  0  0  1  0  0  0  0  0999 V2000
  -21.2910   65.2120   28.5930 N   0  0  0  0  0  0  0  0  0  0  0  0
  -21.8210   65.6380   27.6560 C   0  0  0  0  0  0  0  0  0  0  0  0
  -22.4970   66.1790   26.4630 C   0  0  1  0  0  0  0  0  0  0  0  0
  -21.5350   67.1000   25.7670 C   0  0  0  0  0  0  0  0  0  0  0  0
  -21.5000   68.3220   26.0730 O   0  0  0  0  0  0  0  0  0  0  0  0
  -20.6550   66.5970   24.7600 N   0  0  0  0  0  0  0  0  0  0  0  0
  -20.7330   65.2390   24.3160 C   0  0  0  0  0  0  0  0  0  0  0  0
  -19.8920   64.8200   23.4740 O   0  0  0  0  0  0  0  0  0  0  0  0
  -21.7490   64.2900   24.9160 C   0  0  2  0  0  0  0  0  0  0  0  0
  -22.1100   63.2450   23.9340 C   0  0  0  0  0  0  0  0  0  0  0  0
  -22.3910   62.4270   23.1650 N   0  0  0  0  0  0  0  0  0  0  0  0
  -23.0060   65.0490   25.4890 C   0  0  2  0  0  0  0  0  0  0  0  0
  -23.8400   65.6770   24.3180 C   0  0  0  0  0  0  0  0  0  0  0  0
  -25.1790   66.2750   24.7760 C   0  0  0  0  0  0  0  0  0  0  0  0
  -26.0260   65.2410   25.5230 C   0  0  0  0  0  0  0  0  0  0  0  0
  -25.2610   64.6440   26.7190 C   0  0  2  0  0  0  0  0  0  0  0  0
  -23.9240   64.0290   26.2440 C   0  0  0  0  0  0  0  0  0  0  0  0
  -19.9550   67.2400   24.3240 H   0  0  0  0  0  0  0  0  0  0  0  0
  -26.1200   63.5970   27.4550 C   0  0  0  0  0  0  0  0  0  0  0  0
  -25.5000   62.3600   27.4110 F   0  0  0  0  0  0  0  0  0  0  0  0
  -26.3060   63.9570   28.7800 F   0  0  0  0  0  0  0  0  0  0  0  0
  -27.3570   63.4840   26.8440 F   0  0  0  0  0  0  0  0  0  0  0  0
  2  1  3  0  0  0  0
  3 12  1  6  0  0  0
  3  2  1  0  0  0  0
  4  5  2  0  0  0  0
  4  3  1  0  0  0  0
  6  4  1  0  0  0  0
  7  6  1  0  0  0  0
  7  9  1  0  0  0  0
  8  7  2  0  0  0  0
  9 12  1  6  0  0  0
 10  9  1  0  0  0  0
 11 10  3  0  0  0  0
 12 13  1  6  0  0  0
 12 17  1  0  0  0  0
 13 14  1  0  0  0  0
 14 15  1  0  0  0  0
 15 16  1  0  0  0  0
 16 19  1  6  0  0  0
 17 16  1  0  0  0  0
 18  6  1  0  0  0  0
 19 21  1  0  0  0  0
 20 19  1  0  0  0  0
 22 19  1  0  0  0  0
M  END
>  <MODEL>
1

>  <REMARK>
 VINA RESULT:      -8.5      0.000      0.000
  1 active torsions:
  status: ('A' for Active; 'I' for Inactive)
    1  A    between atoms: C11_16  and  C12_17 

>  <TORSDO>
F 1

$$$$
../pdbqt/decoy.vina_out.24.pdbqt
 OpenBabel06052021513D

 22 23  0  0  1  0  0  0  0  0999 V2000
  -24.2890   62.4120   27.8250 N   0  0  0  0  0  0  0  0  0  0  0  0
  -23.4460   63.1160   27.4570 C   0  0  0  0  0  0  0  0  0  0  0  0
  -22.3730   64.0110   26.9870 C   0  0  1  0  0  0  0  0  0  0  0  0
  -21.0810   63.5370   27.5890 C   0  0  0  0  0  0  0  0  0  0  0  0
  -20.7070   63.9810   28.7080 O   0  0  0  0  0  0  0  0  0  0  0  0
  -20.2720   62.5810   26.9010 N   0  0  0  0  0  0  0  0  0  0  0  0
  -20.6130   62.1280   25.5860 C   0  0  0  0  0  0  0  0  0  0  0  0
  -19.9080   61.2340   25.0440 O   0  0  0  0  0  0  0  0  0  0  0  0
  -21.8550   62.6460   24.8920 C   0  0  2  0  0  0  0  0  0  0  0  0
  -21.6710   62.6050   23.4250 C   0  0  0  0  0  0  0  0  0  0  0  0
  -21.5280   62.5730   22.2770 N   0  0  0  0  0  0  0  0  0  0  0  0
  -22.2780   64.0710   25.4150 C   0  0  2  0  0  0  0  0  0  0  0  0
  -21.2230   65.1460   24.9760 C   0  0  0  0  0  0  0  0  0  0  0  0
  -21.6540   66.5870   25.2850 C   0  0  0  0  0  0  0  0  0  0  0  0
  -23.0160   66.9080   24.6610 C   0  0  0  0  0  0  0  0  0  0  0  0
  -24.0950   65.9090   25.1170 C   0  0  2  0  0  0  0  0  0  0  0  0
  -23.6580   64.4630   24.7850 C   0  0  0  0  0  0  0  0  0  0  0  0
  -19.4030   62.2210   27.3580 H   0  0  0  0  0  0  0  0  0  0  0  0
  -25.4570   66.2360   24.4720 C   0  0  0  0  0  0  0  0  0  0  0  0
  -26.4710   66.0660   25.3980 F   0  0  0  0  0  0  0  0  0  0  0  0
  -25.4820   67.5440   24.0150 F   0  0  0  0  0  0  0  0  0  0  0  0
  -25.6940   65.3850   23.4070 F   0  0  0  0  0  0  0  0  0  0  0  0
  2  1  3  0  0  0  0
  3 12  1  6  0  0  0
  3  2  1  0  0  0  0
  3  4  1  0  0  0  0
  4  5  2  0  0  0  0
  6 18  1  0  0  0  0
  6  4  1  0  0  0  0
  7  6  1  0  0  0  0
  8  7  2  0  0  0  0
  9 12  1  1  0  0  0
  9  7  1  0  0  0  0
 10  9  1  0  0  0  0
 11 10  3  0  0  0  0
 12 17  1  6  0  0  0
 13 14  1  0  0  0  0
 13 12  1  0  0  0  0
 15 16  1  0  0  0  0
 15 14  1  0  0  0  0
 16 19  1  6  0  0  0
 17 16  1  0  0  0  0
 19 20  1  0  0  0  0
 21 19  1  0  0  0  0
 22 19  1  0  0  0  0
M  END
>  <REMARK>
 VINA RESULT:      -8.1      2.694      3.509
  1 active torsions:
  status: ('A' for Active; 'I' for Inactive)
    1  A    between atoms: C11_16  and  C12_17 

>  <TORSDO>
F 1

$$$$
../pdbqt/decoy.vina_out.24.pdbqt
 OpenBabel06052021513D

 22 23  0  0  1  0  0  0  0  0999 V2000
  -22.2290   62.4750   22.6670 N   0  0  0  0  0  0  0  0  0  0  0  0
  -21.5330   62.7330   23.5550 C   0  0  0  0  0  0  0  0  0  0  0  0
  -20.6480   63.0620   24.6870 C   0  0  1  0  0  0  0  0  0  0  0  0
  -19.2560   63.2370   24.1470 C   0  0  0  0  0  0  0  0  0  0  0  0
  -18.4820   62.2460   24.0710 O   0  0  0  0  0  0  0  0  0  0  0  0
  -18.8060   64.5230   23.7180 N   0  0  0  0  0  0  0  0  0  0  0  0
  -19.6200   65.6890   23.8800 C   0  0  0  0  0  0  0  0  0  0  0  0
  -19.2100   66.7910   23.4250 O   0  0  0  0  0  0  0  0  0  0  0  0
  -20.9950   65.5860   24.5060 C   0  0  2  0  0  0  0  0  0  0  0  0
  -21.3500   66.8620   25.1640 C   0  0  0  0  0  0  0  0  0  0  0  0
  -21.6280   67.8600   25.6780 N   0  0  0  0  0  0  0  0  0  0  0  0
  -21.1170   64.3460   25.4720 C   0  0  2  0  0  0  0  0  0  0  0  0
  -20.2270   64.5600   26.7450 C   0  0  0  0  0  0  0  0  0  0  0  0
  -20.4320   63.4840   27.8220 C   0  0  0  0  0  0  0  0  0  0  0  0
  -21.9050   63.3760   28.2280 C   0  0  0  0  0  0  0  0  0  0  0  0
  -22.8080   63.1040   27.0100 C   0  0  2  0  0  0  0  0  0  0  0  0
  -22.6050   64.2030   25.9410 C   0  0  0  0  0  0  0  0  0  0  0  0
  -17.8540   64.6180   23.2940 H   0  0  0  0  0  0  0  0  0  0  0  0
  -24.2870   63.0090   27.4320 C   0  0  0  0  0  0  0  0  0  0  0  0
  -24.6110   61.6970   27.7280 F   0  0  0  0  0  0  0  0  0  0  0  0
  -24.5320   63.7940   28.5470 F   0  0  0  0  0  0  0  0  0  0  0  0
  -25.1030   63.4350   26.3980 F   0  0  0  0  0  0  0  0  0  0  0  0
  1  2  3  0  0  0  0
  2  3  1  0  0  0  0
  3 12  1  6  0  0  0
  4  3  1  0  0  0  0
  5  4  2  0  0  0  0
  6  7  1  0  0  0  0
  6  4  1  0  0  0  0
  7  9  1  0  0  0  0
  8  7  2  0  0  0  0
  9 10  1  0  0  0  0
  9 12  1  1  0  0  0
 10 11  3  0  0  0  0
 12 17  1  1  0  0  0
 12 13  1  0  0  0  0
 13 14  1  0  0  0  0
 14 15  1  0  0  0  0
 16 19  1  1  0  0  0
 16 15  1  0  0  0  0
 17 16  1  0  0  0  0
 18  6  1  0  0  0  0
 19 20  1  0  0  0  0
 19 21  1  0  0  0  0
 22 19  1  0  0  0  0
M  END
>  <REMARK>
 VINA RESULT:      -7.3      2.174      4.037
  1 active torsions:
  status: ('A' for Active; 'I' for Inactive)
    1  A    between atoms: C11_16  and  C12_17 

>  <TORSDO>
F 1

$$$$
../pdbqt/decoy.vina_out.24.pdbqt
 OpenBabel06052021513D

 22 23  0  0  1  0  0  0  0  0999 V2000
  -19.9820   65.3830   24.0900 N   0  0  0  0  0  0  0  0  0  0  0  0
  -20.5070   64.6650   24.8320 C   0  0  0  0  0  0  0  0  0  0  0  0
  -21.1750   63.7520   25.7770 C   0  0  1  0  0  0  0  0  0  0  0  0
  -20.1250   62.8650   26.3810 C   0  0  0  0  0  0  0  0  0  0  0  0
  -19.8270   61.7730   25.8260 O   0  0  0  0  0  0  0  0  0  0  0  0
  -19.4570   63.2530   27.5840 N   0  0  0  0  0  0  0  0  0  0  0  0
  -19.8360   64.4350   28.2960 C   0  0  0  0  0  0  0  0  0  0  0  0
  -19.1760   64.7750   29.3150 O   0  0  0  0  0  0  0  0  0  0  0  0
  -20.9550   65.3180   27.7820 C   0  0  2  0  0  0  0  0  0  0  0  0
  -21.6010   66.0260   28.9090 C   0  0  0  0  0  0  0  0  0  0  0  0
  -22.1060   66.5800   29.7900 N   0  0  0  0  0  0  0  0  0  0  0  0
  -21.9820   64.5190   26.8930 C   0  0  2  0  0  0  0  0  0  0  0  0
  -22.7870   63.5020   27.7750 C   0  0  0  0  0  0  0  0  0  0  0  0
  -23.9370   62.8160   27.0220 C   0  0  0  0  0  0  0  0  0  0  0  0
  -24.8920   63.8440   26.4070 C   0  0  0  0  0  0  0  0  0  0  0  0
  -24.1470   64.8260   25.4840 C   0  0  2  0  0  0  0  0  0  0  0  0
  -23.0030   65.5230   26.2580 C   0  0  0  0  0  0  0  0  0  0  0  0
  -18.6910   62.6500   27.9620 H   0  0  0  0  0  0  0  0  0  0  0  0
  -25.1170   65.8610   24.8820 C   0  0  0  0  0  0  0  0  0  0  0  0
  -24.4760   67.0780   24.7310 F   0  0  0  0  0  0  0  0  0  0  0  0
  -25.5770   65.4410   23.6440 F   0  0  0  0  0  0  0  0  0  0  0  0
  -26.2000   66.0420   25.7240 F   0  0  0  0  0  0  0  0  0  0  0  0
  1  2  3  0  0  0  0
  2  3  1  0  0  0  0
  3  4  1  0  0  0  0
  3 12  1  1  0  0  0
  4  6  1  0  0  0  0
  5  4  2  0  0  0  0
  6 18  1  0  0  0  0
  6  7  1  0  0  0  0
  7  8  2  0  0  0  0
  9 12  1  1  0  0  0
  9  7  1  0  0  0  0
  9 10  1  0  0  0  0
 10 11  3  0  0  0  0
 12 17  1  6  0  0  0
 12 13  1  0  0  0  0
 14 13  1  0  0  0  0
 15 14  1  0  0  0  0
 16 19  1  1  0  0  0
 16 17  1  0  0  0  0
 16 15  1  0  0  0  0
 19 22  1  0  0  0  0
 20 19  1  0  0  0  0
 21 19  1  0  0  0  0
M  END
>  <REMARK>
 VINA RESULT:      -7.2      2.564      4.441
  1 active torsions:
  status: ('A' for Active; 'I' for Inactive)
    1  A    between atoms: C11_16  and  C12_17 

>  <TORSDO>
F 1

$$$$
../pdbqt/decoy.vina_out.24.pdbqt
 OpenBabel06052021513D

 22 23  0  0  1  0  0  0  0  0999 V2000
  -19.0060   66.1860   27.4580 N   0  0  0  0  0  0  0  0  0  0  0  0
  -19.8350   65.8640   26.7170 C   0  0  0  0  0  0  0  0  0  0  0  0
  -20.8900   65.4530   25.7730 C   0  0  1  0  0  0  0  0  0  0  0  0
  -20.5510   66.0250   24.4260 C   0  0  0  0  0  0  0  0  0  0  0  0
  -20.9690   67.1700   24.1050 O   0  0  0  0  0  0  0  0  0  0  0  0
  -19.7550   65.2760   23.5050 N   0  0  0  0  0  0  0  0  0  0  0  0
  -19.3470   63.9360   23.7940 C   0  0  0  0  0  0  0  0  0  0  0  0
  -18.5890   63.3370   22.9820 O   0  0  0  0  0  0  0  0  0  0  0  0
  -19.7410   63.2750   25.0980 C   0  0  2  0  0  0  0  0  0  0  0  0
  -19.8180   61.8090   24.9210 C   0  0  0  0  0  0  0  0  0  0  0  0
  -19.8770   60.6610   24.7840 N   0  0  0  0  0  0  0  0  0  0  0  0
  -21.0630   63.8880   25.6990 C   0  0  2  0  0  0  0  0  0  0  0  0
  -22.2910   63.5190   24.7960 C   0  0  0  0  0  0  0  0  0  0  0  0
  -23.6420   63.9200   25.4090 C   0  0  0  0  0  0  0  0  0  0  0  0
  -23.8210   63.3160   26.8060 C   0  0  0  0  0  0  0  0  0  0  0  0
  -22.6620   63.7070   27.7420 C   0  0  2  0  0  0  0  0  0  0  0  0
  -21.3100   63.2830   27.1230 C   0  0  0  0  0  0  0  0  0  0  0  0
  -19.4830   65.7100   22.5930 H   0  0  0  0  0  0  0  0  0  0  0  0
  -22.8500   63.0840   29.1400 C   0  0  0  0  0  0  0  0  0  0  0  0
  -23.2020   64.0640   30.0510 F   0  0  0  0  0  0  0  0  0  0  0  0
  -23.8410   62.1160   29.1170 F   0  0  0  0  0  0  0  0  0  0  0  0
  -21.6670   62.5020   29.5620 F   0  0  0  0  0  0  0  0  0  0  0  0
  2  1  3  0  0  0  0
  3 12  1  6  0  0  0
  3  2  1  0  0  0  0
  4  3  1  0  0  0  0
  5  4  2  0  0  0  0
  6  7  1  0  0  0  0
  6  4  1  0  0  0  0
  7  9  1  0  0  0  0
  8  7  2  0  0  0  0
  9 12  1  6  0  0  0
 10  9  1  0  0  0  0
 11 10  3  0  0  0  0
 12 13  1  6  0  0  0
 12 17  1  0  0  0  0
 13 14  1  0  0  0  0
 14 15  1  0  0  0  0
 15 16  1  0  0  0  0
 16 19  1  1  0  0  0
 17 16  1  0  0  0  0
 18  6  1  0  0  0  0
 19 22  1  0  0  0  0
 19 20  1  0  0  0  0
 21 19  1  0  0  0  0
M  END
>  <REMARK>
 VINA RESULT:      -6.7      2.372      3.008
  1 active torsions:
  status: ('A' for Active; 'I' for Inactive)
    1  A    between atoms: C11_16  and  C12_17 

>  <TORSDO>
F 1

$$$$
../pdbqt/decoy.vina_out.24.pdbqt
 OpenBabel06052021513D

 22 23  0  0  1  0  0  0  0  0999 V2000
  -23.9150   64.2810   29.8760 N   0  0  0  0  0  0  0  0  0  0  0  0
  -23.1430   64.8540   29.2320 C   0  0  0  0  0  0  0  0  0  0  0  0
  -22.1600   65.5830   28.4100 C   0  0  1  0  0  0  0  0  0  0  0  0
  -20.9080   65.7430   29.2250 C   0  0  0  0  0  0  0  0  0  0  0  0
  -20.7620   66.7530   29.9640 O   0  0  0  0  0  0  0  0  0  0  0  0
  -19.8790   64.7520   29.1680 N   0  0  0  0  0  0  0  0  0  0  0  0
  -19.9640   63.6430   28.2690 C   0  0  0  0  0  0  0  0  0  0  0  0
  -19.0660   62.7570   28.3000 O   0  0  0  0  0  0  0  0  0  0  0  0
  -21.1610   63.4820   27.3550 C   0  0  2  0  0  0  0  0  0  0  0  0
  -20.7720   62.7460   26.1330 C   0  0  0  0  0  0  0  0  0  0  0  0
  -20.4670   62.1700   25.1770 N   0  0  0  0  0  0  0  0  0  0  0  0
  -21.8580   64.8610   27.0420 C   0  0  2  0  0  0  0  0  0  0  0  0
  -20.9230   65.7530   26.1520 C   0  0  0  0  0  0  0  0  0  0  0  0
  -21.6010   67.0350   25.6480 C   0  0  0  0  0  0  0  0  0  0  0  0
  -22.8950   66.7210   24.8910 C   0  0  0  0  0  0  0  0  0  0  0  0
  -23.8680   65.8970   25.7550 C   0  0  2  0  0  0  0  0  0  0  0  0
  -23.1800   64.6000   26.2430 C   0  0  0  0  0  0  0  0  0  0  0  0
  -19.0380   64.8510   29.7820 H   0  0  0  0  0  0  0  0  0  0  0  0
  -25.1600   65.5780   24.9780 C   0  0  0  0  0  0  0  0  0  0  0  0
  -25.9030   64.6330   25.6630 F   0  0  0  0  0  0  0  0  0  0  0  0
  -25.9280   66.7190   24.8140 F   0  0  0  0  0  0  0  0  0  0  0  0
  -24.8500   65.0650   23.7310 F   0  0  0  0  0  0  0  0  0  0  0  0
  2  1  3  0  0  0  0
  3 12  1  6  0  0  0
  3  4  1  0  0  0  0
  3  2  1  0  0  0  0
  4  5  2  0  0  0  0
  6  4  1  0  0  0  0
  6 18  1  0  0  0  0
  7  8  2  0  0  0  0
  7  6  1  0  0  0  0
  9 12  1  6  0  0  0
  9  7  1  0  0  0  0
 10  9  1  0  0  0  0
 11 10  3  0  0  0  0
 12 13  1  6  0  0  0
 14 13  1  0  0  0  0
 15 14  1  0  0  0  0
 15 16  1  0  0  0  0
 16 19  1  6  0  0  0
 16 17  1  0  0  0  0
 17 12  1  0  0  0  0
 19 20  1  0  0  0  0
 21 19  1  0  0  0  0
 22 19  1  0  0  0  0
M  END
>  <REMARK>
 VINA RESULT:      -6.7      2.593      3.462
  1 active torsions:
  status: ('A' for Active; 'I' for Inactive)
    1  A    between atoms: C11_16  and  C12_17 

>  <TORSDO>
F 1

$$$$
../pdbqt/decoy.vina_out.24.pdbqt
 OpenBabel06052021513D

 22 23  0  0  1  0  0  0  0  0999 V2000
  -20.2540   68.0010   24.8600 N   0  0  0  0  0  0  0  0  0  0  0  0
  -19.8290   66.9630   25.1480 C   0  0  0  0  0  0  0  0  0  0  0  0
  -19.2890   65.6410   25.5140 C   0  0  1  0  0  0  0  0  0  0  0  0
  -19.7280   65.3370   26.9190 C   0  0  0  0  0  0  0  0  0  0  0  0
  -19.0120   65.6930   27.8930 O   0  0  0  0  0  0  0  0  0  0  0  0
  -20.9560   64.6470   27.1570 N   0  0  0  0  0  0  0  0  0  0  0  0
  -21.7460   64.1410   26.0760 C   0  0  0  0  0  0  0  0  0  0  0  0
  -22.8560   63.5970   26.3300 O   0  0  0  0  0  0  0  0  0  0  0  0
  -21.3020   64.3350   24.6410 C   0  0  2  0  0  0  0  0  0  0  0  0
  -21.8280   63.2430   23.7950 C   0  0  0  0  0  0  0  0  0  0  0  0
  -22.2400   62.3880   23.1320 N   0  0  0  0  0  0  0  0  0  0  0  0
  -19.7400   64.5040   24.5210 C   0  0  2  0  0  0  0  0  0  0  0  0
  -19.0190   63.1560   24.8740 C   0  0  0  0  0  0  0  0  0  0  0  0
  -17.5080   63.1820   24.6010 C   0  0  0  0  0  0  0  0  0  0  0  0
  -17.2100   63.5670   23.1490 C   0  0  0  0  0  0  0  0  0  0  0  0
  -17.8510   64.9180   22.7800 C   0  0  2  0  0  0  0  0  0  0  0  0
  -19.3750   64.8750   23.0430 C   0  0  0  0  0  0  0  0  0  0  0  0
  -21.2740   64.4910   28.1410 H   0  0  0  0  0  0  0  0  0  0  0  0
  -17.5540   65.2880   21.3140 C   0  0  0  0  0  0  0  0  0  0  0  0
  -18.5050   66.1790   20.8480 F   0  0  0  0  0  0  0  0  0  0  0  0
  -16.3010   65.8680   21.1980 F   0  0  0  0  0  0  0  0  0  0  0  0
  -17.5960   64.1540   20.5210 F   0  0  0  0  0  0  0  0  0  0  0  0
  1  2  3  0  0  0  0
  2  3  1  0  0  0  0
  3 12  1  6  0  0  0
  3  4  1  0  0  0  0
  4  6  1  0  0  0  0
  4  5  2  0  0  0  0
  6 18  1  0  0  0  0
  7  8  2  0  0  0  0
  7  6  1  0  0  0  0
  9 12  1  1  0  0  0
  9  7  1  0  0  0  0
 10  9  1  0  0  0  0
 11 10  3  0  0  0  0
 12 17  1  6  0  0  0
 12 13  1  0  0  0  0
 14 13  1  0  0  0  0
 15 14  1  0  0  0  0
 16 19  1  6  0  0  0
 16 17  1  0  0  0  0
 16 15  1  0  0  0  0
 20 19  1  0  0  0  0
 21 19  1  0  0  0  0
 22 19  1  0  0  0  0
M  END
>  <REMARK>
 VINA RESULT:      -6.6      4.875      6.620
  1 active torsions:
  status: ('A' for Active; 'I' for Inactive)
    1  A    between atoms: C11_16  and  C12_17 

>  <TORSDO>
F 1

$$$$
../pdbqt/decoy.vina_out.24.pdbqt
 OpenBabel06052021513D

 22 23  0  0  1  0  0  0  0  0999 V2000
  -13.0270   63.6090   25.0900 N   0  0  0  0  0  0  0  0  0  0  0  0
  -13.4480   63.5950   24.0120 C   0  0  0  0  0  0  0  0  0  0  0  0
  -13.9860   63.5770   22.6390 C   0  0  1  0  0  0  0  0  0  0  0  0
  -14.9060   62.3960   22.5200 C   0  0  0  0  0  0  0  0  0  0  0  0
  -14.4530   61.2770   22.1580 O   0  0  0  0  0  0  0  0  0  0  0  0
  -16.2980   62.5330   22.8180 N   0  0  0  0  0  0  0  0  0  0  0  0
  -16.8670   63.8070   23.1360 C   0  0  0  0  0  0  0  0  0  0  0  0
  -18.0850   63.8710   23.4580 O   0  0  0  0  0  0  0  0  0  0  0  0
  -16.0020   65.0490   23.1770 C   0  0  2  0  0  0  0  0  0  0  0  0
  -16.8130   66.2440   22.8600 C   0  0  0  0  0  0  0  0  0  0  0  0
  -17.4480   67.1790   22.6120 N   0  0  0  0  0  0  0  0  0  0  0  0
  -14.7270   64.9150   22.2600 C   0  0  2  0  0  0  0  0  0  0  0  0
  -15.1450   64.8950   20.7480 C   0  0  0  0  0  0  0  0  0  0  0  0
  -13.9520   64.9540   19.7830 C   0  0  0  0  0  0  0  0  0  0  0  0
  -13.0680   66.1740   20.0630 C   0  0  0  0  0  0  0  0  0  0  0  0
  -12.5860   66.1970   21.5260 C   0  0  2  0  0  0  0  0  0  0  0  0
  -13.7970   66.1550   22.4870 C   0  0  0  0  0  0  0  0  0  0  0  0
  -16.9150   61.6900   22.7830 H   0  0  0  0  0  0  0  0  0  0  0  0
  -11.7080   67.4350   21.7960 C   0  0  0  0  0  0  0  0  0  0  0  0
  -10.3700   67.0970   21.6940 F   0  0  0  0  0  0  0  0  0  0  0  0
  -11.9870   68.4430   20.8870 F   0  0  0  0  0  0  0  0  0  0  0  0
  -11.9390   67.9100   23.0750 F   0  0  0  0  0  0  0  0  0  0  0  0
  2  1  3  0  0  0  0
  3 12  1  1  0  0  0
  3  2  1  0  0  0  0
  4  3  1  0  0  0  0
  4  6  1  0  0  0  0
  5  4  2  0  0  0  0
  6  7  1  0  0  0  0
  7  9  1  0  0  0  0
  7  8  2  0  0  0  0
  9 12  1  6  0  0  0
 10  9  1  0  0  0  0
 11 10  3  0  0  0  0
 12 13  1  6  0  0  0
 12 17  1  0  0  0  0
 14 15  1  0  0  0  0
 14 13  1  0  0  0  0
 15 16  1  0  0  0  0
 16 19  1  6  0  0  0
 16 17  1  0  0  0  0
 18  6  1  0  0  0  0
 19 22  1  0  0  0  0
 20 19  1  0  0  0  0
 21 19  1  0  0  0  0
M  END
>  <REMARK>
 VINA RESULT:      -6.5      8.777     11.058
  1 active torsions:
  status: ('A' for Active; 'I' for Inactive)
    1  A    between atoms: C11_16  and  C12_17 

>  <TORSDO>
F 1

$$$$
../pdbqt/decoy.vina_out.24.pdbqt
 OpenBabel06052021513D

 22 23  0  0  1  0  0  0  0  0999 V2000
  -17.6260   64.8980   22.8140 N   0  0  0  0  0  0  0  0  0  0  0  0
  -18.7360   64.6380   23.0130 C   0  0  0  0  0  0  0  0  0  0  0  0
  -20.1500   64.3060   23.2680 C   0  0  1  0  0  0  0  0  0  0  0  0
  -20.4340   62.9780   22.6260 C   0  0  0  0  0  0  0  0  0  0  0  0
  -20.8300   62.9270   21.4310 O   0  0  0  0  0  0  0  0  0  0  0  0
  -20.2550   61.7670   23.3650 N   0  0  0  0  0  0  0  0  0  0  0  0
  -19.9020   61.7880   24.7520 C   0  0  0  0  0  0  0  0  0  0  0  0
  -19.6880   60.6970   25.3470 O   0  0  0  0  0  0  0  0  0  0  0  0
  -19.6960   63.1040   25.4740 C   0  0  2  0  0  0  0  0  0  0  0  0
  -20.0020   62.9460   26.9120 C   0  0  0  0  0  0  0  0  0  0  0  0
  -20.2400   62.8230   28.0380 N   0  0  0  0  0  0  0  0  0  0  0  0
  -20.5010   64.2820   24.8040 C   0  0  2  0  0  0  0  0  0  0  0  0
  -22.0420   64.0700   25.0060 C   0  0  0  0  0  0  0  0  0  0  0  0
  -22.8880   65.2670   24.5450 C   0  0  0  0  0  0  0  0  0  0  0  0
  -22.4450   66.5610   25.2340 C   0  0  0  0  0  0  0  0  0  0  0  0
  -20.9460   66.8360   25.0080 C   0  0  2  0  0  0  0  0  0  0  0  0
  -20.1040   65.6320   25.4910 C   0  0  0  0  0  0  0  0  0  0  0  0
  -20.4050   60.8490   22.8880 H   0  0  0  0  0  0  0  0  0  0  0  0
  -20.5120   68.1350   25.7160 C   0  0  0  0  0  0  0  0  0  0  0  0
  -21.1910   69.2150   25.1810 F   0  0  0  0  0  0  0  0  0  0  0  0
  -20.7770   68.0660   27.0740 F   0  0  0  0  0  0  0  0  0  0  0  0
  -19.1560   68.3420   25.5350 F   0  0  0  0  0  0  0  0  0  0  0  0
  1  2  3  0  0  0  0
  2  3  1  0  0  0  0
  3 12  1  1  0  0  0
  4  3  1  0  0  0  0
  4  6  1  0  0  0  0
  5  4  2  0  0  0  0
  6  7  1  0  0  0  0
  7  8  2  0  0  0  0
  7  9  1  0  0  0  0
  9 12  1  6  0  0  0
  9 10  1  0  0  0  0
 10 11  3  0  0  0  0
 12 13  1  1  0  0  0
 12 17  1  0  0  0  0
 14 13  1  0  0  0  0
 14 15  1  0  0  0  0
 16 15  1  0  0  0  0
 16 17  1  0  0  0  0
 16 19  1  1  0  0  0
 18  6  1  0  0  0  0
 19 21  1  0  0  0  0
 20 19  1  0  0  0  0
 22 19  1  0  0  0  0
M  END
>  <REMARK>
 VINA RESULT:      -6.4      3.947      5.483
  1 active torsions:
  status: ('A' for Active; 'I' for Inactive)
    1  A    between atoms: C11_16  and  C12_17 

>  <TORSDO>
F 1

$$$$
