../pdbqt/decoy.vina_out.58.pdbqt
 OpenBabel06052021513D

 17 18  0  0  0  0  0  0  0  0999 V2000
  -28.3100   63.2600   28.8560 C   0  0  0  0  0  0  0  0  0  0  0  0
  -27.0410   63.3550   28.0630 C   0  0  0  0  0  0  0  0  0  0  0  0
  -26.0060   62.4270   28.2520 C   0  0  0  0  0  0  0  0  0  0  0  0
  -24.8150   62.5460   27.5320 C   0  0  0  0  0  0  0  0  0  0  0  0
  -24.6500   63.5810   26.6020 C   0  0  0  0  0  0  0  0  0  0  0  0
  -25.7060   64.4820   26.3590 C   0  0  0  0  0  0  0  0  0  0  0  0
  -26.8820   64.3870   27.1270 C   0  0  0  0  0  0  0  0  0  0  0  0
  -25.4840   65.5630   25.3600 C   0  0  0  0  0  0  0  0  0  0  0  0
  -26.4410   65.9890   24.4950 C   0  0  0  0  0  0  0  0  0  0  0  0
  -26.1940   67.0470   23.5440 C   0  0  0  0  0  0  0  0  0  0  0  0
  -25.9970   67.8940   22.7810 N   0  0  0  0  0  0  0  0  0  0  0  0
  -27.7340   65.3560   24.4040 C   0  0  0  0  0  0  0  0  0  0  0  0
  -28.7710   64.8490   24.3280 N   0  0  0  0  0  0  0  0  0  0  0  0
  -24.0520   66.0480   25.2850 C   0  0  0  0  0  0  0  0  0  0  0  0
  -23.1220   64.8580   25.0100 C   0  0  0  0  0  0  0  0  0  0  0  0
  -23.3990   63.7330   25.9080 N   0  0  0  0  0  0  0  0  0  0  0  0
  -22.6690   62.9900   26.0000 H   0  0  0  0  0  0  0  0  0  0  0  0
  2  3  1  0  0  0  0
  2  1  1  0  0  0  0
  4  3  2  0  0  0  0
  5  4  1  0  0  0  0
  6  5  2  0  0  0  0
  6  7  1  0  0  0  0
  7  2  2  0  0  0  0
  8  6  1  0  0  0  0
  9  8  2  0  0  0  0
 10  9  1  0  0  0  0
 11 10  3  0  0  0  0
 12  9  1  0  0  0  0
 13 12  3  0  0  0  0
 14  8  1  0  0  0  0
 15 14  1  0  0  0  0
 15 16  1  0  0  0  0
 16 17  1  0  0  0  0
 16  5  1  0  0  0  0
M  END
>  <MODEL>
1

>  <REMARK>
 VINA RESULT:      -9.1      0.000      0.000
  0 active torsions:
  status: ('A' for Active; 'I' for Inactive)

>  <TORSDO>
F 0

$$$$
../pdbqt/decoy.vina_out.58.pdbqt
 OpenBabel06052021513D

 17 18  0  0  0  0  0  0  0  0999 V2000
  -22.6650   66.9990   24.9980 C   0  0  0  0  0  0  0  0  0  0  0  0
  -24.0520   66.4310   24.9480 C   0  0  0  0  0  0  0  0  0  0  0  0
  -24.9250   66.7620   23.9010 C   0  0  0  0  0  0  0  0  0  0  0  0
  -26.2260   66.2540   23.8820 C   0  0  0  0  0  0  0  0  0  0  0  0
  -26.6640   65.3940   24.8990 C   0  0  0  0  0  0  0  0  0  0  0  0
  -25.7770   65.0070   25.9220 C   0  0  0  0  0  0  0  0  0  0  0  0
  -24.4860   65.5650   25.9620 C   0  0  0  0  0  0  0  0  0  0  0  0
  -26.2890   64.0900   26.9780 C   0  0  0  0  0  0  0  0  0  0  0  0
  -25.5470   63.0910   27.5240 C   0  0  0  0  0  0  0  0  0  0  0  0
  -26.0730   62.2260   28.5530 C   0  0  0  0  0  0  0  0  0  0  0  0
  -26.4920   61.5320   29.3780 N   0  0  0  0  0  0  0  0  0  0  0  0
  -24.2230   62.7680   27.0510 C   0  0  0  0  0  0  0  0  0  0  0  0
  -23.1610   62.5060   26.6730 N   0  0  0  0  0  0  0  0  0  0  0  0
  -27.7590   64.2680   27.2880 C   0  0  0  0  0  0  0  0  0  0  0  0
  -28.5770   64.1170   25.9980 C   0  0  0  0  0  0  0  0  0  0  0  0
  -28.0230   64.9230   24.9060 N   0  0  0  0  0  0  0  0  0  0  0  0
  -28.6360   65.1130   24.0800 H   0  0  0  0  0  0  0  0  0  0  0  0
  2  1  1  0  0  0  0
  2  7  2  0  0  0  0
  3  2  1  0  0  0  0
  4  3  2  0  0  0  0
  4  5  1  0  0  0  0
  5 16  1  0  0  0  0
  5  6  2  0  0  0  0
  6  7  1  0  0  0  0
  6  8  1  0  0  0  0
  8 14  1  0  0  0  0
  8  9  2  0  0  0  0
  9 10  1  0  0  0  0
 10 11  3  0  0  0  0
 12  9  1  0  0  0  0
 13 12  3  0  0  0  0
 15 14  1  0  0  0  0
 16 15  1  0  0  0  0
 17 16  1  0  0  0  0
M  END
>  <REMARK>
 VINA RESULT:      -8.6      1.658      5.459
  0 active torsions:
  status: ('A' for Active; 'I' for Inactive)

>  <TORSDO>
F 0

$$$$
../pdbqt/decoy.vina_out.58.pdbqt
 OpenBabel06052021513D

 17 18  0  0  0  0  0  0  0  0999 V2000
  -29.3610   65.5730   24.0330 C   0  0  0  0  0  0  0  0  0  0  0  0
  -28.0080   65.4800   24.6750 C   0  0  0  0  0  0  0  0  0  0  0  0
  -26.9490   66.2890   24.2360 C   0  0  0  0  0  0  0  0  0  0  0  0
  -25.6850   66.1690   24.8180 C   0  0  0  0  0  0  0  0  0  0  0  0
  -25.4680   65.2530   25.8580 C   0  0  0  0  0  0  0  0  0  0  0  0
  -26.5390   64.4800   26.3470 C   0  0  0  0  0  0  0  0  0  0  0  0
  -27.7960   64.5690   25.7190 C   0  0  0  0  0  0  0  0  0  0  0  0
  -26.2590   63.5230   27.4530 C   0  0  0  0  0  0  0  0  0  0  0  0
  -27.1220   63.2920   28.4770 C   0  0  0  0  0  0  0  0  0  0  0  0
  -26.8230   62.3500   29.5290 C   0  0  0  0  0  0  0  0  0  0  0  0
  -26.5840   61.5960   30.3730 N   0  0  0  0  0  0  0  0  0  0  0  0
  -28.3500   64.0330   28.6320 C   0  0  0  0  0  0  0  0  0  0  0  0
  -29.3340   64.6280   28.7600 N   0  0  0  0  0  0  0  0  0  0  0  0
  -24.8640   62.9390   27.4230 C   0  0  0  0  0  0  0  0  0  0  0  0
  -23.8320   64.0750   27.4170 C   0  0  0  0  0  0  0  0  0  0  0  0
  -24.1510   65.0930   26.4110 N   0  0  0  0  0  0  0  0  0  0  0  0
  -23.3920   65.7560   26.1310 H   0  0  0  0  0  0  0  0  0  0  0  0
  1  2  1  0  0  0  0
  2  7  1  0  0  0  0
  3  2  2  0  0  0  0
  3  4  1  0  0  0  0
  4  5  2  0  0  0  0
  5  6  1  0  0  0  0
  5 16  1  0  0  0  0
  6  8  1  0  0  0  0
  7  6  2  0  0  0  0
  8  9  2  0  0  0  0
  9 12  1  0  0  0  0
  9 10  1  0  0  0  0
 10 11  3  0  0  0  0
 12 13  3  0  0  0  0
 14  8  1  0  0  0  0
 15 14  1  0  0  0  0
 16 15  1  0  0  0  0
 17 16  1  0  0  0  0
M  END
>  <REMARK>
 VINA RESULT:      -8.5      2.102      4.747
  0 active torsions:
  status: ('A' for Active; 'I' for Inactive)

>  <TORSDO>
F 0

$$$$
../pdbqt/decoy.vina_out.58.pdbqt
 OpenBabel06052021513D

 17 18  0  0  0  0  0  0  0  0999 V2000
  -26.0180   67.4400   23.0880 C   0  0  0  0  0  0  0  0  0  0  0  0
  -26.6520   66.4290   23.9970 C   0  0  0  0  0  0  0  0  0  0  0  0
  -27.9930   66.0520   23.8250 C   0  0  0  0  0  0  0  0  0  0  0  0
  -28.5820   65.1350   24.6990 C   0  0  0  0  0  0  0  0  0  0  0  0
  -27.8360   64.5700   25.7410 C   0  0  0  0  0  0  0  0  0  0  0  0
  -26.4730   64.8950   25.8850 C   0  0  0  0  0  0  0  0  0  0  0  0
  -25.9010   65.8590   25.0340 C   0  0  0  0  0  0  0  0  0  0  0  0
  -25.7210   64.2670   27.0070 C   0  0  0  0  0  0  0  0  0  0  0  0
  -24.4330   63.8480   26.9020 C   0  0  0  0  0  0  0  0  0  0  0  0
  -23.7320   63.2510   28.0130 C   0  0  0  0  0  0  0  0  0  0  0  0
  -23.1690   62.7720   28.9030 N   0  0  0  0  0  0  0  0  0  0  0  0
  -23.7110   63.8850   25.6530 C   0  0  0  0  0  0  0  0  0  0  0  0
  -23.1300   63.9120   24.6530 N   0  0  0  0  0  0  0  0  0  0  0  0
  -26.5620   63.9970   28.2360 C   0  0  0  0  0  0  0  0  0  0  0  0
  -27.7740   63.1380   27.8500 C   0  0  0  0  0  0  0  0  0  0  0  0
  -28.4660   63.6730   26.6720 N   0  0  0  0  0  0  0  0  0  0  0  0
  -29.4390   63.3400   26.4860 H   0  0  0  0  0  0  0  0  0  0  0  0
  1  2  1  0  0  0  0
  2  7  1  0  0  0  0
  3  2  2  0  0  0  0
  3  4  1  0  0  0  0
  4  5  2  0  0  0  0
  5  6  1  0  0  0  0
  5 16  1  0  0  0  0
  6  8  1  0  0  0  0
  7  6  2  0  0  0  0
  8 14  1  0  0  0  0
  9  8  2  0  0  0  0
  9 10  1  0  0  0  0
 10 11  3  0  0  0  0
 12  9  1  0  0  0  0
 13 12  3  0  0  0  0
 15 14  1  0  0  0  0
 16 15  1  0  0  0  0
 17 16  1  0  0  0  0
M  END
>  <REMARK>
 VINA RESULT:      -8.4      1.807      5.184
  0 active torsions:
  status: ('A' for Active; 'I' for Inactive)

>  <TORSDO>
F 0

$$$$
../pdbqt/decoy.vina_out.58.pdbqt
 OpenBabel06052021513D

 17 18  0  0  0  0  0  0  0  0999 V2000
  -24.8820   61.5340   28.5480 C   0  0  0  0  0  0  0  0  0  0  0  0
  -25.9270   62.5320   28.1440 C   0  0  0  0  0  0  0  0  0  0  0  0
  -27.1060   62.6780   28.8910 C   0  0  0  0  0  0  0  0  0  0  0  0
  -28.0870   63.5860   28.4850 C   0  0  0  0  0  0  0  0  0  0  0  0
  -27.8940   64.3720   27.3410 C   0  0  0  0  0  0  0  0  0  0  0  0
  -26.6890   64.2780   26.6200 C   0  0  0  0  0  0  0  0  0  0  0  0
  -25.7290   63.3230   27.0040 C   0  0  0  0  0  0  0  0  0  0  0  0
  -26.5300   65.1350   25.4130 C   0  0  0  0  0  0  0  0  0  0  0  0
  -25.3590   65.7330   25.0690 C   0  0  0  0  0  0  0  0  0  0  0  0
  -25.2390   66.5510   23.8860 C   0  0  0  0  0  0  0  0  0  0  0  0
  -25.1410   67.2070   22.9380 N   0  0  0  0  0  0  0  0  0  0  0  0
  -24.1860   65.6660   25.9060 C   0  0  0  0  0  0  0  0  0  0  0  0
  -23.2440   65.6170   26.5760 N   0  0  0  0  0  0  0  0  0  0  0  0
  -27.8250   65.4100   24.6780 C   0  0  0  0  0  0  0  0  0  0  0  0
  -28.8440   66.0240   25.6480 C   0  0  0  0  0  0  0  0  0  0  0  0
  -28.9340   65.2610   26.8970 N   0  0  0  0  0  0  0  0  0  0  0  0
  -29.7700   65.4170   27.5050 H   0  0  0  0  0  0  0  0  0  0  0  0
  2  1  1  0  0  0  0
  2  3  2  0  0  0  0
  4  3  1  0  0  0  0
  5  4  2  0  0  0  0
  6  7  2  0  0  0  0
  6  5  1  0  0  0  0
  7  2  1  0  0  0  0
  8  6  1  0  0  0  0
  9  8  2  0  0  0  0
  9 12  1  0  0  0  0
 10  9  1  0  0  0  0
 11 10  3  0  0  0  0
 12 13  3  0  0  0  0
 14  8  1  0  0  0  0
 14 15  1  0  0  0  0
 15 16  1  0  0  0  0
 16  5  1  0  0  0  0
 16 17  1  0  0  0  0
M  END
>  <REMARK>
 VINA RESULT:      -8.2      1.247      3.412
  0 active torsions:
  status: ('A' for Active; 'I' for Inactive)

>  <TORSDO>
F 0

$$$$
../pdbqt/decoy.vina_out.58.pdbqt
 OpenBabel06052021513D

 17 18  0  0  0  0  0  0  0  0999 V2000
  -22.3570   62.8810   26.8320 C   0  0  0  0  0  0  0  0  0  0  0  0
  -23.7500   63.2720   27.2300 C   0  0  0  0  0  0  0  0  0  0  0  0
  -24.1880   63.1150   28.5530 C   0  0  0  0  0  0  0  0  0  0  0  0
  -25.4980   63.4500   28.9050 C   0  0  0  0  0  0  0  0  0  0  0  0
  -26.3790   63.9640   27.9430 C   0  0  0  0  0  0  0  0  0  0  0  0
  -25.9310   64.1830   26.6260 C   0  0  0  0  0  0  0  0  0  0  0  0
  -24.6270   63.7930   26.2680 C   0  0  0  0  0  0  0  0  0  0  0  0
  -26.9040   64.7320   25.6420 C   0  0  0  0  0  0  0  0  0  0  0  0
  -26.5700   65.6410   24.6890 C   0  0  0  0  0  0  0  0  0  0  0  0
  -27.5380   66.1460   23.7440 C   0  0  0  0  0  0  0  0  0  0  0  0
  -28.3120   66.5520   22.9860 N   0  0  0  0  0  0  0  0  0  0  0  0
  -25.2560   66.2310   24.6130 C   0  0  0  0  0  0  0  0  0  0  0  0
  -24.2030   66.7070   24.5520 N   0  0  0  0  0  0  0  0  0  0  0  0
  -28.3350   64.3040   25.8860 C   0  0  0  0  0  0  0  0  0  0  0  0
  -28.7440   64.6790   27.3170 C   0  0  0  0  0  0  0  0  0  0  0  0
  -27.7430   64.2500   28.2990 N   0  0  0  0  0  0  0  0  0  0  0  0
  -28.0320   64.2040   29.3020 H   0  0  0  0  0  0  0  0  0  0  0  0
  1  2  1  0  0  0  0
  2  3  2  0  0  0  0
  3  4  1  0  0  0  0
  5 16  1  0  0  0  0
  5  4  2  0  0  0  0
  6  5  1  0  0  0  0
  7  6  2  0  0  0  0
  7  2  1  0  0  0  0
  8 14  1  0  0  0  0
  8  6  1  0  0  0  0
  9  8  2  0  0  0  0
 10  9  1  0  0  0  0
 11 10  3  0  0  0  0
 12  9  1  0  0  0  0
 13 12  3  0  0  0  0
 14 15  1  0  0  0  0
 15 16  1  0  0  0  0
 16 17  1  0  0  0  0
M  END
>  <REMARK>
 VINA RESULT:      -8.1      1.824      3.511
  0 active torsions:
  status: ('A' for Active; 'I' for Inactive)

>  <TORSDO>
F 0

$$$$
../pdbqt/decoy.vina_out.58.pdbqt
 OpenBabel06052021513D

 17 18  0  0  0  0  0  0  0  0999 V2000
  -25.6830   61.5770   28.7690 C   0  0  0  0  0  0  0  0  0  0  0  0
  -26.0730   62.7030   27.8570 C   0  0  0  0  0  0  0  0  0  0  0  0
  -27.4180   63.0710   27.7060 C   0  0  0  0  0  0  0  0  0  0  0  0
  -27.7720   64.0980   26.8270 C   0  0  0  0  0  0  0  0  0  0  0  0
  -26.7850   64.7820   26.1040 C   0  0  0  0  0  0  0  0  0  0  0  0
  -25.4270   64.4620   26.2940 C   0  0  0  0  0  0  0  0  0  0  0  0
  -25.0830   63.3900   27.1400 C   0  0  0  0  0  0  0  0  0  0  0  0
  -24.4160   65.2180   25.5040 C   0  0  0  0  0  0  0  0  0  0  0  0
  -23.2140   65.6050   26.0050 C   0  0  0  0  0  0  0  0  0  0  0  0
  -22.2530   66.3300   25.2080 C   0  0  0  0  0  0  0  0  0  0  0  0
  -21.4820   66.9110   24.5700 N   0  0  0  0  0  0  0  0  0  0  0  0
  -22.8530   65.4020   27.3870 C   0  0  0  0  0  0  0  0  0  0  0  0
  -22.5620   65.2420   28.4950 N   0  0  0  0  0  0  0  0  0  0  0  0
  -24.9000   65.6510   24.1380 C   0  0  0  0  0  0  0  0  0  0  0  0
  -26.1910   66.4680   24.2870 C   0  0  0  0  0  0  0  0  0  0  0  0
  -27.1620   65.7970   25.1570 N   0  0  0  0  0  0  0  0  0  0  0  0
  -28.1570   66.1140   25.1140 H   0  0  0  0  0  0  0  0  0  0  0  0
  2  1  1  0  0  0  0
  3  2  1  0  0  0  0
  4  3  2  0  0  0  0
  5  6  2  0  0  0  0
  5  4  1  0  0  0  0
  6  7  1  0  0  0  0
  7  2  2  0  0  0  0
  8  9  2  0  0  0  0
  8  6  1  0  0  0  0
  9 12  1  0  0  0  0
 10  9  1  0  0  0  0
 11 10  3  0  0  0  0
 12 13  3  0  0  0  0
 14 15  1  0  0  0  0
 14  8  1  0  0  0  0
 15 16  1  0  0  0  0
 16  5  1  0  0  0  0
 17 16  1  0  0  0  0
M  END
>  <REMARK>
 VINA RESULT:      -8.1      1.720      3.675
  0 active torsions:
  status: ('A' for Active; 'I' for Inactive)

>  <TORSDO>
F 0

$$$$
../pdbqt/decoy.vina_out.58.pdbqt
 OpenBabel06052021513D

 17 18  0  0  0  0  0  0  0  0999 V2000
  -28.6240   64.6560   26.7460 C   0  0  0  0  0  0  0  0  0  0  0  0
  -27.2320   64.1540   26.9900 C   0  0  0  0  0  0  0  0  0  0  0  0
  -27.0150   62.9010   27.5830 C   0  0  0  0  0  0  0  0  0  0  0  0
  -25.7150   62.4590   27.8370 C   0  0  0  0  0  0  0  0  0  0  0  0
  -24.6160   63.2540   27.4860 C   0  0  0  0  0  0  0  0  0  0  0  0
  -24.8200   64.4860   26.8350 C   0  0  0  0  0  0  0  0  0  0  0  0
  -26.1340   64.9480   26.6310 C   0  0  0  0  0  0  0  0  0  0  0  0
  -23.6200   65.2940   26.4790 C   0  0  0  0  0  0  0  0  0  0  0  0
  -23.5130   66.0040   25.3260 C   0  0  0  0  0  0  0  0  0  0  0  0
  -22.3380   66.7840   25.0170 C   0  0  0  0  0  0  0  0  0  0  0  0
  -21.3970   67.4090   24.7680 N   0  0  0  0  0  0  0  0  0  0  0  0
  -24.5200   65.9550   24.2940 C   0  0  0  0  0  0  0  0  0  0  0  0
  -25.3250   65.9160   23.4640 N   0  0  0  0  0  0  0  0  0  0  0  0
  -22.4650   65.1380   27.4440 C   0  0  0  0  0  0  0  0  0  0  0  0
  -22.0990   63.6520   27.5690 C   0  0  0  0  0  0  0  0  0  0  0  0
  -23.2820   62.8190   27.8040 N   0  0  0  0  0  0  0  0  0  0  0  0
  -23.1330   61.8520   28.1720 H   0  0  0  0  0  0  0  0  0  0  0  0
  1  2  1  0  0  0  0
  2  3  2  0  0  0  0
  3  4  1  0  0  0  0
  5 16  1  0  0  0  0
  5  4  2  0  0  0  0
  6  5  1  0  0  0  0
  7  6  2  0  0  0  0
  7  2  1  0  0  0  0
  8  6  1  0  0  0  0
  8 14  1  0  0  0  0
  9  8  2  0  0  0  0
 10  9  1  0  0  0  0
 11 10  3  0  0  0  0
 12  9  1  0  0  0  0
 13 12  3  0  0  0  0
 14 15  1  0  0  0  0
 15 16  1  0  0  0  0
 16 17  1  0  0  0  0
M  END
>  <REMARK>
 VINA RESULT:      -7.4      1.859      2.697
  0 active torsions:
  status: ('A' for Active; 'I' for Inactive)

>  <TORSDO>
F 0

$$$$
../pdbqt/decoy.vina_out.58.pdbqt
 OpenBabel06052021513D

 17 18  0  0  0  0  0  0  0  0999 V2000
  -25.9730   63.8660   27.2690 C   0  0  0  0  0  0  0  0  0  0  0  0
  -25.0380   64.7610   26.5110 C   0  0  0  0  0  0  0  0  0  0  0  0
  -25.4910   65.5030   25.4100 C   0  0  0  0  0  0  0  0  0  0  0  0
  -24.6030   66.3060   24.6900 C   0  0  0  0  0  0  0  0  0  0  0  0
  -23.2580   66.3930   25.0730 C   0  0  0  0  0  0  0  0  0  0  0  0
  -22.8060   65.7010   26.2130 C   0  0  0  0  0  0  0  0  0  0  0  0
  -23.6940   64.8520   26.9000 C   0  0  0  0  0  0  0  0  0  0  0  0
  -21.3680   65.8250   26.5800 C   0  0  0  0  0  0  0  0  0  0  0  0
  -20.9300   65.9080   27.8640 C   0  0  0  0  0  0  0  0  0  0  0  0
  -19.5270   66.0200   28.1840 C   0  0  0  0  0  0  0  0  0  0  0  0
  -18.4030   66.1100   28.4430 N   0  0  0  0  0  0  0  0  0  0  0  0
  -21.8350   65.9830   28.9840 C   0  0  0  0  0  0  0  0  0  0  0  0
  -22.5590   66.0450   29.8850 N   0  0  0  0  0  0  0  0  0  0  0  0
  -20.4440   66.0040   25.3960 C   0  0  0  0  0  0  0  0  0  0  0  0
  -20.8980   67.2150   24.5690 C   0  0  0  0  0  0  0  0  0  0  0  0
  -22.3370   67.1750   24.2920 N   0  0  0  0  0  0  0  0  0  0  0  0
  -22.7030   67.7830   23.5250 H   0  0  0  0  0  0  0  0  0  0  0  0
  2  7  1  0  0  0  0
  2  1  1  0  0  0  0
  3  2  2  0  0  0  0
  4  5  2  0  0  0  0
  4  3  1  0  0  0  0
  5  6  1  0  0  0  0
  6  8  1  0  0  0  0
  6  7  2  0  0  0  0
  8  9  2  0  0  0  0
  9 10  1  0  0  0  0
  9 12  1  0  0  0  0
 10 11  3  0  0  0  0
 12 13  3  0  0  0  0
 14  8  1  0  0  0  0
 15 14  1  0  0  0  0
 16 15  1  0  0  0  0
 16  5  1  0  0  0  0
 17 16  1  0  0  0  0
M  END
>  <REMARK>
 VINA RESULT:      -6.4      3.215      5.454
  0 active torsions:
  status: ('A' for Active; 'I' for Inactive)

>  <TORSDO>
F 0

$$$$
