../pdbqt/decoy.vina_out.7.pdbqt
 OpenBabel06052021513D

 19 20  0  0  0  0  0  0  0  0999 V2000
  -24.5850   65.7770   24.6180 C   0  0  0  0  0  0  0  0  0  0  0  0
  -25.0960   65.5860   25.7990 N   0  0  0  0  0  0  0  0  0  0  0  0
  -23.9830   64.7290   23.9230 O   0  0  0  0  0  0  0  0  0  0  0  0
  -23.6180   63.9190   24.4090 H   0  0  0  0  0  0  0  0  0  0  0  0
  -24.6700   67.0710   24.0000 N   0  0  0  0  0  0  0  0  0  0  0  0
  -23.8150   67.6700   23.9750 H   0  0  0  0  0  0  0  0  0  0  0  0
  -25.8850   67.5710   23.3560 C   0  0  0  0  0  0  0  0  0  0  0  0
  -26.7220   66.4220   22.7850 C   0  0  0  0  0  0  0  0  0  0  0  0
  -28.1590   66.6980   22.9570 N   0  0  0  0  0  0  0  0  0  0  0  0
  -28.7390   67.0950   22.1810 H   0  0  0  0  0  0  0  0  0  0  0  0
  -28.8650   65.6780   23.7610 C   0  0  0  0  0  0  0  0  0  0  0  0
  -28.6010   67.0030   24.3350 C   0  0  0  0  0  0  0  0  0  0  0  0
  -25.0430   64.3730   26.5690 C   0  0  0  0  0  0  0  0  0  0  0  0
  -23.8150   63.7520   26.8720 C   0  0  0  0  0  0  0  0  0  0  0  0
  -23.7830   62.5930   27.6510 C   0  0  0  0  0  0  0  0  0  0  0  0
  -24.9660   62.0510   28.1490 C   0  0  0  0  0  0  0  0  0  0  0  0
  -26.1880   62.6740   27.8840 C   0  0  0  0  0  0  0  0  0  0  0  0
  -26.2360   63.8430   27.1060 C   0  0  0  0  0  0  0  0  0  0  0  0
  -27.5560   64.5080   26.8300 C   0  0  0  0  0  0  0  0  0  0  0  0
  1  2  2  0  0  0  0
  2 13  1  0  0  0  0
  3  4  1  0  0  0  0
  3  1  1  0  0  0  0
  5  1  1  0  0  0  0
  6  5  1  0  0  0  0
  7  5  1  0  0  0  0
  8  9  1  0  0  0  0
  8  7  1  0  0  0  0
  9 11  1  0  0  0  0
  9 12  1  0  0  0  0
 10  9  1  0  0  0  0
 11 12  1  0  0  0  0
 13 14  2  0  0  0  0
 13 18  1  0  0  0  0
 14 15  1  0  0  0  0
 15 16  2  0  0  0  0
 17 16  1  0  0  0  0
 18 17  2  0  0  0  0
 19 18  1  0  0  0  0
M  END
>  <MODEL>
1

>  <REMARK>
 VINA RESULT:      -6.9      0.000      0.000
  6 active torsions:
  status: ('A' for Active; 'I' for Inactive)
    1  A    between atoms: O1_2  and  C1_3 
    2  A    between atoms: C1_3  and  N2_12 
    3  A    between atoms: N1_4  and  C2_5 
    4  A    between atoms: N2_12  and  C9_14 
    5  A    between atoms: C9_14  and  C10_15 
    6  A    between atoms: C10_15  and  N3_16 

>  <TORSDO>
F 6

$$$$
../pdbqt/decoy.vina_out.7.pdbqt
 OpenBabel06052021513D

 19 20  0  0  0  0  0  0  0  0999 V2000
  -28.4510   64.2220   27.4400 C   0  0  0  0  0  0  0  0  0  0  0  0
  -27.7530   63.9860   26.3680 N   0  0  0  0  0  0  0  0  0  0  0  0
  -29.1120   65.4380   27.6080 O   0  0  0  0  0  0  0  0  0  0  0  0
  -29.8320   65.5510   28.3100 H   0  0  0  0  0  0  0  0  0  0  0  0
  -28.5760   63.2100   28.4510 N   0  0  0  0  0  0  0  0  0  0  0  0
  -29.4600   62.6560   28.4960 H   0  0  0  0  0  0  0  0  0  0  0  0
  -27.5030   62.8810   29.3900 C   0  0  0  0  0  0  0  0  0  0  0  0
  -26.6550   61.7140   28.8750 C   0  0  0  0  0  0  0  0  0  0  0  0
  -25.2550   61.8650   29.3090 N   0  0  0  0  0  0  0  0  0  0  0  0
  -24.8320   61.2350   30.0300 H   0  0  0  0  0  0  0  0  0  0  0  0
  -24.3290   62.2110   28.2090 C   0  0  0  0  0  0  0  0  0  0  0  0
  -24.6870   63.2260   29.2060 C   0  0  0  0  0  0  0  0  0  0  0  0
  -27.4880   64.9110   25.2980 C   0  0  0  0  0  0  0  0  0  0  0  0
  -28.4920   65.2730   24.3780 C   0  0  0  0  0  0  0  0  0  0  0  0
  -28.2230   66.1980   23.3670 C   0  0  0  0  0  0  0  0  0  0  0  0
  -26.9620   66.7840   23.2710 C   0  0  0  0  0  0  0  0  0  0  0  0
  -25.9660   66.4580   24.1960 C   0  0  0  0  0  0  0  0  0  0  0  0
  -26.2240   65.5330   25.2200 C   0  0  0  0  0  0  0  0  0  0  0  0
  -25.1460   65.1930   26.2130 C   0  0  0  0  0  0  0  0  0  0  0  0
  1  3  1  0  0  0  0
  1  5  1  0  0  0  0
  2  1  2  0  0  0  0
  3  4  1  0  0  0  0
  5  6  1  0  0  0  0
  5  7  1  0  0  0  0
  8  9  1  0  0  0  0
  8  7  1  0  0  0  0
  9 10  1  0  0  0  0
 11 12  1  0  0  0  0
 11  9  1  0  0  0  0
 12  9  1  0  0  0  0
 13  2  1  0  0  0  0
 14 13  2  0  0  0  0
 15 14  1  0  0  0  0
 16 15  2  0  0  0  0
 16 17  1  0  0  0  0
 17 18  2  0  0  0  0
 18 13  1  0  0  0  0
 18 19  1  0  0  0  0
M  END
>  <REMARK>
 VINA RESULT:      -6.7      2.762      6.146
  6 active torsions:
  status: ('A' for Active; 'I' for Inactive)
    1  A    between atoms: O1_2  and  C1_3 
    2  A    between atoms: C1_3  and  N2_12 
    3  A    between atoms: N1_4  and  C2_5 
    4  A    between atoms: N2_12  and  C9_14 
    5  A    between atoms: C9_14  and  C10_15 
    6  A    between atoms: C10_15  and  N3_16 

>  <TORSDO>
F 6

$$$$
../pdbqt/decoy.vina_out.7.pdbqt
 OpenBabel06052021513D

 19 20  0  0  0  0  0  0  0  0999 V2000
  -24.5070   66.8480   24.0510 C   0  0  0  0  0  0  0  0  0  0  0  0
  -25.2030   66.1950   24.9350 N   0  0  0  0  0  0  0  0  0  0  0  0
  -25.1070   67.3380   22.8920 O   0  0  0  0  0  0  0  0  0  0  0  0
  -25.9770   66.9520   22.5480 H   0  0  0  0  0  0  0  0  0  0  0  0
  -23.1130   67.1030   24.2820 N   0  0  0  0  0  0  0  0  0  0  0  0
  -22.5760   67.6330   23.5590 H   0  0  0  0  0  0  0  0  0  0  0  0
  -22.4180   66.7020   25.5050 C   0  0  0  0  0  0  0  0  0  0  0  0
  -21.6850   65.3700   25.3140 C   0  0  0  0  0  0  0  0  0  0  0  0
  -22.6280   64.2440   25.4220 N   0  0  0  0  0  0  0  0  0  0  0  0
  -23.5890   64.3680   25.8190 H   0  0  0  0  0  0  0  0  0  0  0  0
  -22.5790   63.3200   24.2700 C   0  0  0  0  0  0  0  0  0  0  0  0
  -22.0240   62.9020   25.5620 C   0  0  0  0  0  0  0  0  0  0  0  0
  -26.5860   65.8140   24.8260 C   0  0  0  0  0  0  0  0  0  0  0  0
  -27.4040   66.3180   23.7960 C   0  0  0  0  0  0  0  0  0  0  0  0
  -28.7350   65.9090   23.6870 C   0  0  0  0  0  0  0  0  0  0  0  0
  -29.2590   64.9830   24.5880 C   0  0  0  0  0  0  0  0  0  0  0  0
  -28.4500   64.4510   25.5950 C   0  0  0  0  0  0  0  0  0  0  0  0
  -27.1080   64.8500   25.7140 C   0  0  0  0  0  0  0  0  0  0  0  0
  -26.2450   64.2670   26.7990 C   0  0  0  0  0  0  0  0  0  0  0  0
  1  5  1  0  0  0  0
  1  2  2  0  0  0  0
  3  1  1  0  0  0  0
  4  3  1  0  0  0  0
  5  7  1  0  0  0  0
  6  5  1  0  0  0  0
  8  9  1  0  0  0  0
  8  7  1  0  0  0  0
  9 12  1  0  0  0  0
  9 10  1  0  0  0  0
 11  9  1  0  0  0  0
 11 12  1  0  0  0  0
 13  2  1  0  0  0  0
 13 18  2  0  0  0  0
 14 13  1  0  0  0  0
 15 14  2  0  0  0  0
 15 16  1  0  0  0  0
 16 17  2  0  0  0  0
 17 18  1  0  0  0  0
 18 19  1  0  0  0  0
M  END
>  <REMARK>
 VINA RESULT:      -6.5      1.983      4.747
  6 active torsions:
  status: ('A' for Active; 'I' for Inactive)
    1  A    between atoms: O1_2  and  C1_3 
    2  A    between atoms: C1_3  and  N2_12 
    3  A    between atoms: N1_4  and  C2_5 
    4  A    between atoms: N2_12  and  C9_14 
    5  A    between atoms: C9_14  and  C10_15 
    6  A    between atoms: C10_15  and  N3_16 

>  <TORSDO>
F 6

$$$$
../pdbqt/decoy.vina_out.7.pdbqt
 OpenBabel06052021513D

 19 20  0  0  0  0  0  0  0  0999 V2000
  -24.2600   66.6030   24.1730 C   0  0  0  0  0  0  0  0  0  0  0  0
  -24.5290   65.3310   24.2370 N   0  0  0  0  0  0  0  0  0  0  0  0
  -23.0800   67.1110   24.7140 O   0  0  0  0  0  0  0  0  0  0  0  0
  -22.5760   67.8620   24.2600 H   0  0  0  0  0  0  0  0  0  0  0  0
  -25.1670   67.4940   23.5060 N   0  0  0  0  0  0  0  0  0  0  0  0
  -24.9390   68.5130   23.4820 H   0  0  0  0  0  0  0  0  0  0  0  0
  -26.3720   67.0380   22.8120 C   0  0  0  0  0  0  0  0  0  0  0  0
  -27.5590   66.9310   23.7750 C   0  0  0  0  0  0  0  0  0  0  0  0
  -27.6800   65.5570   24.2910 N   0  0  0  0  0  0  0  0  0  0  0  0
  -26.8630   64.9020   24.3070 H   0  0  0  0  0  0  0  0  0  0  0  0
  -28.5480   65.4470   25.4830 C   0  0  0  0  0  0  0  0  0  0  0  0
  -29.0190   64.9400   24.1900 C   0  0  0  0  0  0  0  0  0  0  0  0
  -23.7550   64.3250   24.9140 C   0  0  0  0  0  0  0  0  0  0  0  0
  -22.6210   63.7460   24.3110 C   0  0  0  0  0  0  0  0  0  0  0  0
  -21.8630   62.7960   24.9980 C   0  0  0  0  0  0  0  0  0  0  0  0
  -22.2140   62.4250   26.2960 C   0  0  0  0  0  0  0  0  0  0  0  0
  -23.3170   63.0150   26.9180 C   0  0  0  0  0  0  0  0  0  0  0  0
  -24.0860   63.9760   26.2400 C   0  0  0  0  0  0  0  0  0  0  0  0
  -25.2690   64.6070   26.9210 C   0  0  0  0  0  0  0  0  0  0  0  0
  1  2  2  0  0  0  0
  1  3  1  0  0  0  0
  2 13  1  0  0  0  0
  4  3  1  0  0  0  0
  5  1  1  0  0  0  0
  6  5  1  0  0  0  0
  7  5  1  0  0  0  0
  7  8  1  0  0  0  0
  8  9  1  0  0  0  0
  9 10  1  0  0  0  0
  9 11  1  0  0  0  0
 12  9  1  0  0  0  0
 12 11  1  0  0  0  0
 13 18  1  0  0  0  0
 14 13  2  0  0  0  0
 14 15  1  0  0  0  0
 15 16  2  0  0  0  0
 16 17  1  0  0  0  0
 18 17  2  0  0  0  0
 18 19  1  0  0  0  0
M  END
>  <REMARK>
 VINA RESULT:      -6.5      1.689      2.229
  6 active torsions:
  status: ('A' for Active; 'I' for Inactive)
    1  A    between atoms: O1_2  and  C1_3 
    2  A    between atoms: C1_3  and  N2_12 
    3  A    between atoms: N1_4  and  C2_5 
    4  A    between atoms: N2_12  and  C9_14 
    5  A    between atoms: C9_14  and  C10_15 
    6  A    between atoms: C10_15  and  N3_16 

>  <TORSDO>
F 6

$$$$
../pdbqt/decoy.vina_out.7.pdbqt
 OpenBabel06052021513D

 19 20  0  0  0  0  0  0  0  0999 V2000
  -24.4500   66.8320   24.0040 C   0  0  0  0  0  0  0  0  0  0  0  0
  -25.1290   66.1650   24.8910 N   0  0  0  0  0  0  0  0  0  0  0  0
  -25.0770   67.3620   22.8770 O   0  0  0  0  0  0  0  0  0  0  0  0
  -25.9540   66.9860   22.5400 H   0  0  0  0  0  0  0  0  0  0  0  0
  -23.0460   67.0610   24.1990 N   0  0  0  0  0  0  0  0  0  0  0  0
  -22.6220   67.9290   23.8020 H   0  0  0  0  0  0  0  0  0  0  0  0
  -22.1890   66.1630   24.9720 C   0  0  0  0  0  0  0  0  0  0  0  0
  -21.6290   66.8640   26.2140 C   0  0  0  0  0  0  0  0  0  0  0  0
  -21.3440   68.2790   25.9210 N   0  0  0  0  0  0  0  0  0  0  0  0
  -21.9940   68.8620   25.3450 H   0  0  0  0  0  0  0  0  0  0  0  0
  -20.7460   69.0090   27.0590 C   0  0  0  0  0  0  0  0  0  0  0  0
  -19.9160   68.6620   25.9000 C   0  0  0  0  0  0  0  0  0  0  0  0
  -26.5190   65.8050   24.8130 C   0  0  0  0  0  0  0  0  0  0  0  0
  -27.3320   66.2520   23.7530 C   0  0  0  0  0  0  0  0  0  0  0  0
  -28.6720   65.8650   23.6770 C   0  0  0  0  0  0  0  0  0  0  0  0
  -29.2110   65.0160   24.6440 C   0  0  0  0  0  0  0  0  0  0  0  0
  -28.4080   64.5390   25.6830 C   0  0  0  0  0  0  0  0  0  0  0  0
  -27.0580   64.9180   25.7690 C   0  0  0  0  0  0  0  0  0  0  0  0
  -26.2010   64.3950   26.8900 C   0  0  0  0  0  0  0  0  0  0  0  0
  1  5  1  0  0  0  0
  1  2  2  0  0  0  0
  3  1  1  0  0  0  0
  4  3  1  0  0  0  0
  5  7  1  0  0  0  0
  6  5  1  0  0  0  0
  7  8  1  0  0  0  0
  9  8  1  0  0  0  0
  9 11  1  0  0  0  0
 10  9  1  0  0  0  0
 12  9  1  0  0  0  0
 12 11  1  0  0  0  0
 13  2  1  0  0  0  0
 13 18  2  0  0  0  0
 14 13  1  0  0  0  0
 15 14  2  0  0  0  0
 15 16  1  0  0  0  0
 16 17  2  0  0  0  0
 17 18  1  0  0  0  0
 18 19  1  0  0  0  0
M  END
>  <REMARK>
 VINA RESULT:      -6.4      2.769      5.249
  6 active torsions:
  status: ('A' for Active; 'I' for Inactive)
    1  A    between atoms: O1_2  and  C1_3 
    2  A    between atoms: C1_3  and  N2_12 
    3  A    between atoms: N1_4  and  C2_5 
    4  A    between atoms: N2_12  and  C9_14 
    5  A    between atoms: C9_14  and  C10_15 
    6  A    between atoms: C10_15  and  N3_16 

>  <TORSDO>
F 6

$$$$
../pdbqt/decoy.vina_out.7.pdbqt
 OpenBabel06052021513D

 19 20  0  0  0  0  0  0  0  0999 V2000
  -22.8800   65.3510   24.9970 C   0  0  0  0  0  0  0  0  0  0  0  0
  -23.8820   66.0860   25.3860 N   0  0  0  0  0  0  0  0  0  0  0  0
  -23.0950   64.1040   24.4140 O   0  0  0  0  0  0  0  0  0  0  0  0
  -22.3220   63.5350   24.0930 H   0  0  0  0  0  0  0  0  0  0  0  0
  -21.5370   65.8400   25.1340 N   0  0  0  0  0  0  0  0  0  0  0  0
  -20.8600   65.2860   25.7040 H   0  0  0  0  0  0  0  0  0  0  0  0
  -21.0560   67.0520   24.4710 C   0  0  0  0  0  0  0  0  0  0  0  0
  -20.9790   68.2270   25.4520 C   0  0  0  0  0  0  0  0  0  0  0  0
  -19.6110   68.7730   25.4940 N   0  0  0  0  0  0  0  0  0  0  0  0
  -19.0860   69.0060   24.6190 H   0  0  0  0  0  0  0  0  0  0  0  0
  -19.3940   69.7420   26.5890 C   0  0  0  0  0  0  0  0  0  0  0  0
  -18.8000   68.4030   26.6730 C   0  0  0  0  0  0  0  0  0  0  0  0
  -25.2720   65.7180   25.3680 C   0  0  0  0  0  0  0  0  0  0  0  0
  -25.8270   64.9070   26.3770 C   0  0  0  0  0  0  0  0  0  0  0  0
  -27.1870   64.5880   26.3600 C   0  0  0  0  0  0  0  0  0  0  0  0
  -28.0100   65.0870   25.3510 C   0  0  0  0  0  0  0  0  0  0  0  0
  -27.4790   65.9180   24.3620 C   0  0  0  0  0  0  0  0  0  0  0  0
  -26.1140   66.2500   24.3690 C   0  0  0  0  0  0  0  0  0  0  0  0
  -25.5550   67.1500   23.3010 C   0  0  0  0  0  0  0  0  0  0  0  0
  1  5  1  0  0  0  0
  1  2  2  0  0  0  0
  3  1  1  0  0  0  0
  4  3  1  0  0  0  0
  5  6  1  0  0  0  0
  7  5  1  0  0  0  0
  7  8  1  0  0  0  0
  8  9  1  0  0  0  0
  9 11  1  0  0  0  0
  9 12  1  0  0  0  0
 10  9  1  0  0  0  0
 11 12  1  0  0  0  0
 13  2  1  0  0  0  0
 13 14  2  0  0  0  0
 15 14  1  0  0  0  0
 16 15  2  0  0  0  0
 17 18  2  0  0  0  0
 17 16  1  0  0  0  0
 18 13  1  0  0  0  0
 19 18  1  0  0  0  0
M  END
>  <REMARK>
 VINA RESULT:      -6.3      3.402      5.605
  6 active torsions:
  status: ('A' for Active; 'I' for Inactive)
    1  A    between atoms: O1_2  and  C1_3 
    2  A    between atoms: C1_3  and  N2_12 
    3  A    between atoms: N1_4  and  C2_5 
    4  A    between atoms: N2_12  and  C9_14 
    5  A    between atoms: C9_14  and  C10_15 
    6  A    between atoms: C10_15  and  N3_16 

>  <TORSDO>
F 6

$$$$
../pdbqt/decoy.vina_out.7.pdbqt
 OpenBabel06052021513D

 19 20  0  0  0  0  0  0  0  0999 V2000
  -22.9460   65.4960   24.7950 C   0  0  0  0  0  0  0  0  0  0  0  0
  -23.9670   66.2150   25.1610 N   0  0  0  0  0  0  0  0  0  0  0  0
  -23.1170   64.1810   24.3650 O   0  0  0  0  0  0  0  0  0  0  0  0
  -23.6910   63.5300   24.8860 H   0  0  0  0  0  0  0  0  0  0  0  0
  -21.6300   66.0690   24.7960 N   0  0  0  0  0  0  0  0  0  0  0  0
  -21.4910   67.0030   25.2430 H   0  0  0  0  0  0  0  0  0  0  0  0
  -20.4590   65.3840   24.2470 C   0  0  0  0  0  0  0  0  0  0  0  0
  -19.3080   66.3650   24.0010 C   0  0  0  0  0  0  0  0  0  0  0  0
  -19.0650   66.5210   22.5570 N   0  0  0  0  0  0  0  0  0  0  0  0
  -19.6020   67.2120   21.9810 H   0  0  0  0  0  0  0  0  0  0  0  0
  -17.6380   66.4230   22.1830 C   0  0  0  0  0  0  0  0  0  0  0  0
  -18.5560   65.3270   21.8510 C   0  0  0  0  0  0  0  0  0  0  0  0
  -25.3320   65.7720   25.2680 C   0  0  0  0  0  0  0  0  0  0  0  0
  -25.7460   64.9230   26.3130 C   0  0  0  0  0  0  0  0  0  0  0  0
  -27.0820   64.5320   26.4180 C   0  0  0  0  0  0  0  0  0  0  0  0
  -28.0220   64.9950   25.4980 C   0  0  0  0  0  0  0  0  0  0  0  0
  -27.6320   65.8630   24.4760 C   0  0  0  0  0  0  0  0  0  0  0  0
  -26.2910   66.2680   24.3600 C   0  0  0  0  0  0  0  0  0  0  0  0
  -25.8830   67.2070   23.2580 C   0  0  0  0  0  0  0  0  0  0  0  0
  1  5  1  0  0  0  0
  1  2  2  0  0  0  0
  2 13  1  0  0  0  0
  3  1  1  0  0  0  0
  3  4  1  0  0  0  0
  5  6  1  0  0  0  0
  7  5  1  0  0  0  0
  8  7  1  0  0  0  0
  9  8  1  0  0  0  0
 10  9  1  0  0  0  0
 11  9  1  0  0  0  0
 12 11  1  0  0  0  0
 12  9  1  0  0  0  0
 13 14  2  0  0  0  0
 14 15  1  0  0  0  0
 16 15  2  0  0  0  0
 17 16  1  0  0  0  0
 18 17  2  0  0  0  0
 18 13  1  0  0  0  0
 19 18  1  0  0  0  0
M  END
>  <REMARK>
 VINA RESULT:      -6.3      3.578      5.814
  6 active torsions:
  status: ('A' for Active; 'I' for Inactive)
    1  A    between atoms: O1_2  and  C1_3 
    2  A    between atoms: C1_3  and  N2_12 
    3  A    between atoms: N1_4  and  C2_5 
    4  A    between atoms: N2_12  and  C9_14 
    5  A    between atoms: C9_14  and  C10_15 
    6  A    between atoms: C10_15  and  N3_16 

>  <TORSDO>
F 6

$$$$
../pdbqt/decoy.vina_out.7.pdbqt
 OpenBabel06052021513D

 19 20  0  0  0  0  0  0  0  0999 V2000
  -22.9970   65.2850   24.7940 C   0  0  0  0  0  0  0  0  0  0  0  0
  -23.9590   66.0760   25.1670 N   0  0  0  0  0  0  0  0  0  0  0  0
  -23.2670   63.9890   24.3570 O   0  0  0  0  0  0  0  0  0  0  0  0
  -22.5780   63.4550   23.8440 H   0  0  0  0  0  0  0  0  0  0  0  0
  -21.6400   65.7560   24.7950 N   0  0  0  0  0  0  0  0  0  0  0  0
  -21.4600   66.7600   24.5720 H   0  0  0  0  0  0  0  0  0  0  0  0
  -20.5000   64.9100   25.1450 C   0  0  0  0  0  0  0  0  0  0  0  0
  -19.9640   64.1660   23.9170 C   0  0  0  0  0  0  0  0  0  0  0  0
  -20.5440   62.8150   23.8410 N   0  0  0  0  0  0  0  0  0  0  0  0
  -21.3560   62.5310   24.4380 H   0  0  0  0  0  0  0  0  0  0  0  0
  -20.6050   62.2740   22.4660 C   0  0  0  0  0  0  0  0  0  0  0  0
  -19.6260   61.7360   23.4170 C   0  0  0  0  0  0  0  0  0  0  0  0
  -25.3530   65.7380   25.2750 C   0  0  0  0  0  0  0  0  0  0  0  0
  -25.8350   64.9520   26.3400 C   0  0  0  0  0  0  0  0  0  0  0  0
  -27.1970   64.6630   26.4460 C   0  0  0  0  0  0  0  0  0  0  0  0
  -28.0950   65.1660   25.5050 C   0  0  0  0  0  0  0  0  0  0  0  0
  -27.6350   65.9730   24.4610 C   0  0  0  0  0  0  0  0  0  0  0  0
  -26.2680   66.2760   24.3450 C   0  0  0  0  0  0  0  0  0  0  0  0
  -25.7850   67.1500   23.2200 C   0  0  0  0  0  0  0  0  0  0  0  0
  1  5  1  0  0  0  0
  1  2  2  0  0  0  0
  2 13  1  0  0  0  0
  3  1  1  0  0  0  0
  4  3  1  0  0  0  0
  5  7  1  0  0  0  0
  6  5  1  0  0  0  0
  8  7  1  0  0  0  0
  9  8  1  0  0  0  0
  9 10  1  0  0  0  0
 11 12  1  0  0  0  0
 11  9  1  0  0  0  0
 12  9  1  0  0  0  0
 13 14  2  0  0  0  0
 14 15  1  0  0  0  0
 16 15  2  0  0  0  0
 17 16  1  0  0  0  0
 18 17  2  0  0  0  0
 18 13  1  0  0  0  0
 19 18  1  0  0  0  0
M  END
>  <REMARK>
 VINA RESULT:      -6.1      3.201      5.523
  6 active torsions:
  status: ('A' for Active; 'I' for Inactive)
    1  A    between atoms: O1_2  and  C1_3 
    2  A    between atoms: C1_3  and  N2_12 
    3  A    between atoms: N1_4  and  C2_5 
    4  A    between atoms: N2_12  and  C9_14 
    5  A    between atoms: C9_14  and  C10_15 
    6  A    between atoms: C10_15  and  N3_16 

>  <TORSDO>
F 6

$$$$
../pdbqt/decoy.vina_out.7.pdbqt
 OpenBabel06052021513D

 19 20  0  0  0  0  0  0  0  0999 V2000
  -21.9380   63.7920   24.2340 C   0  0  0  0  0  0  0  0  0  0  0  0
  -22.4320   64.4200   25.2620 N   0  0  0  0  0  0  0  0  0  0  0  0
  -22.7320   62.9370   23.4720 O   0  0  0  0  0  0  0  0  0  0  0  0
  -22.6930   62.9480   22.4610 H   0  0  0  0  0  0  0  0  0  0  0  0
  -20.5700   64.0060   23.8540 N   0  0  0  0  0  0  0  0  0  0  0  0
  -19.9490   64.5410   24.5010 H   0  0  0  0  0  0  0  0  0  0  0  0
  -19.9880   63.4650   22.6250 C   0  0  0  0  0  0  0  0  0  0  0  0
  -19.0330   64.4710   21.9740 C   0  0  0  0  0  0  0  0  0  0  0  0
  -17.9290   63.7680   21.2980 N   0  0  0  0  0  0  0  0  0  0  0  0
  -18.0310   62.7830   20.9590 H   0  0  0  0  0  0  0  0  0  0  0  0
  -17.1520   64.6310   20.3830 C   0  0  0  0  0  0  0  0  0  0  0  0
  -16.5640   64.2060   21.6580 C   0  0  0  0  0  0  0  0  0  0  0  0
  -23.7570   64.2710   25.8000 C   0  0  0  0  0  0  0  0  0  0  0  0
  -24.0590   63.2580   26.7310 C   0  0  0  0  0  0  0  0  0  0  0  0
  -25.3440   63.1520   27.2680 C   0  0  0  0  0  0  0  0  0  0  0  0
  -26.3350   64.0610   26.8990 C   0  0  0  0  0  0  0  0  0  0  0  0
  -26.0410   65.0900   26.0010 C   0  0  0  0  0  0  0  0  0  0  0  0
  -24.7510   65.2110   25.4560 C   0  0  0  0  0  0  0  0  0  0  0  0
  -24.4450   66.3260   24.4940 C   0  0  0  0  0  0  0  0  0  0  0  0
  1  2  2  0  0  0  0
  2 13  1  0  0  0  0
  3  1  1  0  0  0  0
  4  3  1  0  0  0  0
  5  1  1  0  0  0  0
  5  6  1  0  0  0  0
  7  5  1  0  0  0  0
  8  7  1  0  0  0  0
  9 12  1  0  0  0  0
  9  8  1  0  0  0  0
 10  9  1  0  0  0  0
 11  9  1  0  0  0  0
 11 12  1  0  0  0  0
 13 14  1  0  0  0  0
 14 15  2  0  0  0  0
 16 15  1  0  0  0  0
 17 16  2  0  0  0  0
 18 13  2  0  0  0  0
 18 17  1  0  0  0  0
 19 18  1  0  0  0  0
M  END
>  <REMARK>
 VINA RESULT:      -6.1      4.613      6.324
  6 active torsions:
  status: ('A' for Active; 'I' for Inactive)
    1  A    between atoms: O1_2  and  C1_3 
    2  A    between atoms: C1_3  and  N2_12 
    3  A    between atoms: N1_4  and  C2_5 
    4  A    between atoms: N2_12  and  C9_14 
    5  A    between atoms: C9_14  and  C10_15 
    6  A    between atoms: C10_15  and  N3_16 

>  <TORSDO>
F 6

$$$$
