../pdbqt/decoy.vina_out.36.pdbqt
 OpenBabel06052021513D

 24 27  0  0  0  0  0  0  0  0999 V2000
  -22.9850   65.0580   26.5280 C   0  0  0  0  0  0  0  0  0  0  0  0
  -21.9080   65.8710   26.1410 C   0  0  0  0  0  0  0  0  0  0  0  0
  -22.0940   66.8770   25.1900 C   0  0  0  0  0  0  0  0  0  0  0  0
  -20.9360   67.7000   24.7220 C   0  0  0  0  0  0  0  0  0  0  0  0
  -23.3030   67.0190   24.5910 N   0  0  0  0  0  0  0  0  0  0  0  0
  -24.3900   66.2890   24.9580 C   0  0  0  0  0  0  0  0  0  0  0  0
  -25.6120   66.4490   24.2530 C   0  0  0  0  0  0  0  0  0  0  0  0
  -25.7030   67.3950   23.0880 C   0  0  0  0  0  0  0  0  0  0  0  0
  -26.7440   65.7050   24.6350 C   0  0  0  0  0  0  0  0  0  0  0  0
  -26.6600   64.8930   25.7610 C   0  0  0  0  0  0  0  0  0  0  0  0
  -27.6960   64.2640   26.3510 N   0  0  0  0  0  0  0  0  0  0  0  0
  -27.2040   63.7970   27.5130 C   0  0  0  0  0  0  0  0  0  0  0  0
  -27.9340   63.1870   28.5310 C   0  0  0  0  0  0  0  0  0  0  0  0
  -27.2820   62.9250   29.7470 C   0  0  0  0  0  0  0  0  0  0  0  0
  -25.9430   63.3190   29.9360 C   0  0  0  0  0  0  0  0  0  0  0  0
  -25.2320   63.9510   28.9010 C   0  0  0  0  0  0  0  0  0  0  0  0
  -25.8670   64.1190   27.6640 C   0  0  0  0  0  0  0  0  0  0  0  0
  -25.4880   64.7730   26.4910 C   0  0  0  0  0  0  0  0  0  0  0  0
  -24.2830   65.3610   26.0360 C   0  0  0  0  0  0  0  0  0  0  0  0
  -28.6890   64.2370   26.0290 H   0  0  0  0  0  0  0  0  0  0  0  0
  -22.6670   63.7840   27.2080 C   0  0  0  0  0  0  0  0  0  0  0  0
  -22.2490   63.7930   28.4000 O   0  0  0  0  0  0  0  0  0  0  0  0
  -22.7780   62.5760   26.5110 O   0  0  0  0  0  0  0  0  0  0  0  0
  -21.9020   62.2180   25.4500 C   0  0  0  0  0  0  0  0  0  0  0  0
  1 21  1  0  0  0  0
  2  1  1  0  0  0  0
  3  2  2  0  0  0  0
  4  3  1  0  0  0  0
  5  6  2  0  0  0  0
  5  3  1  0  0  0  0
  6 19  1  0  0  0  0
  7  9  2  0  0  0  0
  7  6  1  0  0  0  0
  8  7  1  0  0  0  0
  9 10  1  0  0  0  0
 10 11  1  0  0  0  0
 10 18  2  0  0  0  0
 11 12  1  0  0  0  0
 12 17  2  0  0  0  0
 12 13  1  0  0  0  0
 13 14  2  0  0  0  0
 14 15  1  0  0  0  0
 16 15  2  0  0  0  0
 17 16  1  0  0  0  0
 18 17  1  0  0  0  0
 19 18  1  0  0  0  0
 19  1  2  0  0  0  0
 20 11  1  0  0  0  0
 21 22  2  0  0  0  0
 23 21  1  0  0  0  0
 24 23  1  0  0  0  0
M  END
>  <MODEL>
1

>  <REMARK>
 VINA RESULT:      -8.7      0.000      0.000
  2 active torsions:
  status: ('A' for Active; 'I' for Inactive)
    1  A    between atoms: O1_2  and  C2_3 
    2  A    between atoms: C2_3  and  C3_5 

>  <TORSDO>
F 2

$$$$
../pdbqt/decoy.vina_out.36.pdbqt
 OpenBabel06052021513D

 24 27  0  0  0  0  0  0  0  0999 V2000
  -24.8780   65.4220   25.7180 C   0  0  0  0  0  0  0  0  0  0  0  0
  -24.6620   66.3660   24.7020 C   0  0  0  0  0  0  0  0  0  0  0  0
  -25.7290   66.8070   23.9160 C   0  0  0  0  0  0  0  0  0  0  0  0
  -25.4940   67.7600   22.7870 C   0  0  0  0  0  0  0  0  0  0  0  0
  -26.9610   66.2670   24.0920 N   0  0  0  0  0  0  0  0  0  0  0  0
  -27.2350   65.3830   25.0870 C   0  0  0  0  0  0  0  0  0  0  0  0
  -28.5320   64.8130   25.1820 C   0  0  0  0  0  0  0  0  0  0  0  0
  -29.5930   65.1590   24.1730 C   0  0  0  0  0  0  0  0  0  0  0  0
  -28.8260   63.9060   26.2170 C   0  0  0  0  0  0  0  0  0  0  0  0
  -27.8560   63.6580   27.1820 C   0  0  0  0  0  0  0  0  0  0  0  0
  -28.0440   62.9610   28.3200 N   0  0  0  0  0  0  0  0  0  0  0  0
  -26.9310   63.1700   29.0460 C   0  0  0  0  0  0  0  0  0  0  0  0
  -26.7140   62.7580   30.3600 C   0  0  0  0  0  0  0  0  0  0  0  0
  -25.5620   63.2200   31.0160 C   0  0  0  0  0  0  0  0  0  0  0  0
  -24.6870   64.1150   30.3700 C   0  0  0  0  0  0  0  0  0  0  0  0
  -24.9360   64.5330   29.0520 C   0  0  0  0  0  0  0  0  0  0  0  0
  -26.0370   63.9880   28.3790 C   0  0  0  0  0  0  0  0  0  0  0  0
  -26.6040   64.2520   27.1320 C   0  0  0  0  0  0  0  0  0  0  0  0
  -26.2100   65.0260   26.0130 C   0  0  0  0  0  0  0  0  0  0  0  0
  -28.9090   62.4570   28.6190 H   0  0  0  0  0  0  0  0  0  0  0  0
  -23.6970   64.6990   26.2390 C   0  0  0  0  0  0  0  0  0  0  0  0
  -22.8130   65.3230   26.8890 O   0  0  0  0  0  0  0  0  0  0  0  0
  -23.5370   63.3370   25.9620 O   0  0  0  0  0  0  0  0  0  0  0  0
  -22.2970   62.6610   26.1250 C   0  0  0  0  0  0  0  0  0  0  0  0
  1 19  1  0  0  0  0
  1 21  1  0  0  0  0
  2  1  2  0  0  0  0
  3  5  2  0  0  0  0
  3  2  1  0  0  0  0
  4  3  1  0  0  0  0
  5  6  1  0  0  0  0
  6  7  2  0  0  0  0
  6 19  1  0  0  0  0
  7  9  1  0  0  0  0
  8  7  1  0  0  0  0
  9 10  2  0  0  0  0
 10 11  1  0  0  0  0
 11 20  1  0  0  0  0
 11 12  1  0  0  0  0
 12 13  1  0  0  0  0
 13 14  2  0  0  0  0
 15 14  1  0  0  0  0
 16 15  2  0  0  0  0
 17 12  2  0  0  0  0
 17 16  1  0  0  0  0
 18 10  1  0  0  0  0
 18 17  1  0  0  0  0
 19 18  2  0  0  0  0
 21 22  2  0  0  0  0
 23 24  1  0  0  0  0
 23 21  1  0  0  0  0
M  END
>  <REMARK>
 VINA RESULT:      -8.6      1.682      2.659
  2 active torsions:
  status: ('A' for Active; 'I' for Inactive)
    1  A    between atoms: O1_2  and  C2_3 
    2  A    between atoms: C2_3  and  C3_5 

>  <TORSDO>
F 2

$$$$
../pdbqt/decoy.vina_out.36.pdbqt
 OpenBabel06052021513D

 24 27  0  0  0  0  0  0  0  0999 V2000
  -23.8620   65.0690   25.1660 C   0  0  0  0  0  0  0  0  0  0  0  0
  -24.5120   65.9410   24.2780 C   0  0  0  0  0  0  0  0  0  0  0  0
  -25.8830   66.1740   24.4020 C   0  0  0  0  0  0  0  0  0  0  0  0
  -26.5950   67.0470   23.4170 C   0  0  0  0  0  0  0  0  0  0  0  0
  -26.5970   65.5010   25.3390 N   0  0  0  0  0  0  0  0  0  0  0  0
  -26.0120   64.6800   26.2510 C   0  0  0  0  0  0  0  0  0  0  0  0
  -26.8230   63.9620   27.1690 C   0  0  0  0  0  0  0  0  0  0  0  0
  -28.3220   64.0820   27.1210 C   0  0  0  0  0  0  0  0  0  0  0  0
  -26.2240   63.1180   28.1240 C   0  0  0  0  0  0  0  0  0  0  0  0
  -24.8360   63.0790   28.2020 C   0  0  0  0  0  0  0  0  0  0  0  0
  -24.1230   62.4660   29.1670 N   0  0  0  0  0  0  0  0  0  0  0  0
  -22.8560   62.8760   28.9790 C   0  0  0  0  0  0  0  0  0  0  0  0
  -21.7720   62.6100   29.8140 C   0  0  0  0  0  0  0  0  0  0  0  0
  -20.5590   63.2700   29.5520 C   0  0  0  0  0  0  0  0  0  0  0  0
  -20.4710   64.2080   28.5050 C   0  0  0  0  0  0  0  0  0  0  0  0
  -21.5830   64.4740   27.6880 C   0  0  0  0  0  0  0  0  0  0  0  0
  -22.7560   63.7390   27.9020 C   0  0  0  0  0  0  0  0  0  0  0  0
  -24.0340   63.8190   27.3470 C   0  0  0  0  0  0  0  0  0  0  0  0
  -24.5930   64.5360   26.2610 C   0  0  0  0  0  0  0  0  0  0  0  0
  -24.4900   61.8850   29.9540 H   0  0  0  0  0  0  0  0  0  0  0  0
  -22.5370   64.5490   24.7630 C   0  0  0  0  0  0  0  0  0  0  0  0
  -21.5660   65.3430   24.6170 O   0  0  0  0  0  0  0  0  0  0  0  0
  -22.3780   63.1860   24.4920 O   0  0  0  0  0  0  0  0  0  0  0  0
  -21.8740   62.7030   23.2530 C   0  0  0  0  0  0  0  0  0  0  0  0
  1 19  2  0  0  0  0
  2  3  2  0  0  0  0
  2  1  1  0  0  0  0
  3  5  1  0  0  0  0
  4  3  1  0  0  0  0
  5  6  2  0  0  0  0
  6 19  1  0  0  0  0
  6  7  1  0  0  0  0
  7  9  2  0  0  0  0
  8  7  1  0  0  0  0
  9 10  1  0  0  0  0
 10 11  1  0  0  0  0
 11 20  1  0  0  0  0
 12 11  1  0  0  0  0
 12 13  2  0  0  0  0
 14 13  1  0  0  0  0
 15 14  2  0  0  0  0
 16 17  2  0  0  0  0
 16 15  1  0  0  0  0
 17 12  1  0  0  0  0
 18 17  1  0  0  0  0
 18 10  2  0  0  0  0
 19 18  1  0  0  0  0
 21  1  1  0  0  0  0
 22 21  2  0  0  0  0
 23 21  1  0  0  0  0
 24 23  1  0  0  0  0
M  END
>  <REMARK>
 VINA RESULT:      -8.5      2.046      4.128
  2 active torsions:
  status: ('A' for Active; 'I' for Inactive)
    1  A    between atoms: O1_2  and  C2_3 
    2  A    between atoms: C2_3  and  C3_5 

>  <TORSDO>
F 2

$$$$
../pdbqt/decoy.vina_out.36.pdbqt
 OpenBabel06052021513D

 24 27  0  0  0  0  0  0  0  0999 V2000
  -24.2080   64.4390   28.0200 C   0  0  0  0  0  0  0  0  0  0  0  0
  -23.3090   64.6130   29.0840 C   0  0  0  0  0  0  0  0  0  0  0  0
  -22.2100   65.4630   28.9410 C   0  0  0  0  0  0  0  0  0  0  0  0
  -21.2100   65.6000   30.0460 C   0  0  0  0  0  0  0  0  0  0  0  0
  -21.9770   66.0650   27.7490 N   0  0  0  0  0  0  0  0  0  0  0  0
  -22.8370   65.9650   26.7000 C   0  0  0  0  0  0  0  0  0  0  0  0
  -22.5050   66.5750   25.4610 C   0  0  0  0  0  0  0  0  0  0  0  0
  -21.1990   67.3020   25.2940 C   0  0  0  0  0  0  0  0  0  0  0  0
  -23.3960   66.4860   24.3750 C   0  0  0  0  0  0  0  0  0  0  0  0
  -24.6300   65.8750   24.5730 C   0  0  0  0  0  0  0  0  0  0  0  0
  -25.6510   65.8690   23.6930 N   0  0  0  0  0  0  0  0  0  0  0  0
  -26.7000   65.3810   24.3780 C   0  0  0  0  0  0  0  0  0  0  0  0
  -28.0160   65.3070   23.9260 C   0  0  0  0  0  0  0  0  0  0  0  0
  -29.0100   64.9320   24.8460 C   0  0  0  0  0  0  0  0  0  0  0  0
  -28.6790   64.6920   26.1930 C   0  0  0  0  0  0  0  0  0  0  0  0
  -27.3470   64.7920   26.6310 C   0  0  0  0  0  0  0  0  0  0  0  0
  -26.3550   65.0730   25.6820 C   0  0  0  0  0  0  0  0  0  0  0  0
  -24.9880   65.3260   25.7950 C   0  0  0  0  0  0  0  0  0  0  0  0
  -24.0530   65.2360   26.8540 C   0  0  0  0  0  0  0  0  0  0  0  0
  -25.6540   66.2580   22.7230 H   0  0  0  0  0  0  0  0  0  0  0  0
  -25.0970   63.2580   28.0660 C   0  0  0  0  0  0  0  0  0  0  0  0
  -24.8900   62.2820   27.2920 O   0  0  0  0  0  0  0  0  0  0  0  0
  -26.1980   63.2500   28.9290 O   0  0  0  0  0  0  0  0  0  0  0  0
  -26.4590   62.1820   29.8320 C   0  0  0  0  0  0  0  0  0  0  0  0
  1 21  1  0  0  0  0
  1  2  2  0  0  0  0
  3  2  1  0  0  0  0
  3  4  1  0  0  0  0
  5  3  2  0  0  0  0
  6 19  1  0  0  0  0
  6  5  1  0  0  0  0
  7  6  2  0  0  0  0
  8  7  1  0  0  0  0
  9 10  2  0  0  0  0
  9  7  1  0  0  0  0
 10 18  1  0  0  0  0
 11 12  1  0  0  0  0
 11 10  1  0  0  0  0
 12 17  1  0  0  0  0
 13 12  2  0  0  0  0
 13 14  1  0  0  0  0
 14 15  2  0  0  0  0
 15 16  1  0  0  0  0
 17 18  1  0  0  0  0
 17 16  2  0  0  0  0
 18 19  2  0  0  0  0
 19  1  1  0  0  0  0
 20 11  1  0  0  0  0
 21 23  1  0  0  0  0
 22 21  2  0  0  0  0
 23 24  1  0  0  0  0
M  END
>  <REMARK>
 VINA RESULT:      -8.4      1.961      3.829
  2 active torsions:
  status: ('A' for Active; 'I' for Inactive)
    1  A    between atoms: O1_2  and  C2_3 
    2  A    between atoms: C2_3  and  C3_5 

>  <TORSDO>
F 2

$$$$
../pdbqt/decoy.vina_out.36.pdbqt
 OpenBabel06052021513D

 24 27  0  0  0  0  0  0  0  0999 V2000
  -23.5670   63.7530   27.8520 C   0  0  0  0  0  0  0  0  0  0  0  0
  -24.3890   62.7730   28.4310 C   0  0  0  0  0  0  0  0  0  0  0  0
  -25.7130   62.6310   28.0100 C   0  0  0  0  0  0  0  0  0  0  0  0
  -26.6150   61.6360   28.6700 C   0  0  0  0  0  0  0  0  0  0  0  0
  -26.2210   63.4880   27.0900 N   0  0  0  0  0  0  0  0  0  0  0  0
  -25.4590   64.4260   26.4670 C   0  0  0  0  0  0  0  0  0  0  0  0
  -26.0650   65.3290   25.5540 C   0  0  0  0  0  0  0  0  0  0  0  0
  -27.5460   65.2740   25.2960 C   0  0  0  0  0  0  0  0  0  0  0  0
  -25.2800   66.2950   24.8970 C   0  0  0  0  0  0  0  0  0  0  0  0
  -23.9040   66.2800   25.0920 C   0  0  0  0  0  0  0  0  0  0  0  0
  -23.0080   67.0160   24.4040 N   0  0  0  0  0  0  0  0  0  0  0  0
  -21.8070   66.5200   24.7530 C   0  0  0  0  0  0  0  0  0  0  0  0
  -20.5770   66.8730   24.2000 C   0  0  0  0  0  0  0  0  0  0  0  0
  -19.4480   66.1210   24.5650 C   0  0  0  0  0  0  0  0  0  0  0  0
  -19.5790   65.0130   25.4250 C   0  0  0  0  0  0  0  0  0  0  0  0
  -20.8320   64.6640   25.9550 C   0  0  0  0  0  0  0  0  0  0  0  0
  -21.9310   65.4810   25.6570 C   0  0  0  0  0  0  0  0  0  0  0  0
  -23.2930   65.3660   25.9370 C   0  0  0  0  0  0  0  0  0  0  0  0
  -24.0630   64.5010   26.7510 C   0  0  0  0  0  0  0  0  0  0  0  0
  -23.2060   67.7410   23.6780 H   0  0  0  0  0  0  0  0  0  0  0  0
  -22.3400   64.1310   28.5850 C   0  0  0  0  0  0  0  0  0  0  0  0
  -21.4240   63.2800   28.7630 O   0  0  0  0  0  0  0  0  0  0  0  0
  -22.2200   65.4160   29.1270 O   0  0  0  0  0  0  0  0  0  0  0  0
  -22.7120   65.7540   30.4180 C   0  0  0  0  0  0  0  0  0  0  0  0
  1  2  2  0  0  0  0
  1 21  1  0  0  0  0
  3  2  1  0  0  0  0
  3  4  1  0  0  0  0
  5  3  2  0  0  0  0
  6 19  1  0  0  0  0
  6  5  1  0  0  0  0
  7  6  2  0  0  0  0
  8  7  1  0  0  0  0
  9 10  2  0  0  0  0
  9  7  1  0  0  0  0
 10 18  1  0  0  0  0
 11 12  1  0  0  0  0
 11 10  1  0  0  0  0
 12 17  2  0  0  0  0
 13 14  2  0  0  0  0
 13 12  1  0  0  0  0
 14 15  1  0  0  0  0
 15 16  2  0  0  0  0
 17 18  1  0  0  0  0
 17 16  1  0  0  0  0
 18 19  2  0  0  0  0
 19  1  1  0  0  0  0
 20 11  1  0  0  0  0
 21 22  2  0  0  0  0
 21 23  1  0  0  0  0
 23 24  1  0  0  0  0
M  END
>  <REMARK>
 VINA RESULT:      -8.0      1.493      5.317
  2 active torsions:
  status: ('A' for Active; 'I' for Inactive)
    1  A    between atoms: O1_2  and  C2_3 
    2  A    between atoms: C2_3  and  C3_5 

>  <TORSDO>
F 2

$$$$
../pdbqt/decoy.vina_out.36.pdbqt
 OpenBabel06052021513D

 24 27  0  0  0  0  0  0  0  0999 V2000
  -25.6980   63.8160   28.2510 C   0  0  0  0  0  0  0  0  0  0  0  0
  -26.8570   63.4990   28.9770 C   0  0  0  0  0  0  0  0  0  0  0  0
  -28.1150   63.8350   28.4720 C   0  0  0  0  0  0  0  0  0  0  0  0
  -29.3500   63.5620   29.2710 C   0  0  0  0  0  0  0  0  0  0  0  0
  -28.2080   64.5320   27.3110 N   0  0  0  0  0  0  0  0  0  0  0  0
  -27.1220   64.8260   26.5480 C   0  0  0  0  0  0  0  0  0  0  0  0
  -27.2830   65.6070   25.3720 C   0  0  0  0  0  0  0  0  0  0  0  0
  -28.6380   66.1310   24.9840 C   0  0  0  0  0  0  0  0  0  0  0  0
  -26.1650   65.9060   24.5710 C   0  0  0  0  0  0  0  0  0  0  0  0
  -24.9360   65.3490   24.9060 C   0  0  0  0  0  0  0  0  0  0  0  0
  -23.8230   65.3950   24.1470 N   0  0  0  0  0  0  0  0  0  0  0  0
  -22.9630   64.5460   24.7380 C   0  0  0  0  0  0  0  0  0  0  0  0
  -21.7190   64.1570   24.2440 C   0  0  0  0  0  0  0  0  0  0  0  0
  -21.0370   63.1250   24.9090 C   0  0  0  0  0  0  0  0  0  0  0  0
  -21.6270   62.4760   26.0100 C   0  0  0  0  0  0  0  0  0  0  0  0
  -22.8920   62.8720   26.4790 C   0  0  0  0  0  0  0  0  0  0  0  0
  -23.5160   63.9650   25.8650 C   0  0  0  0  0  0  0  0  0  0  0  0
  -24.7780   64.5390   26.0200 C   0  0  0  0  0  0  0  0  0  0  0  0
  -25.8340   64.3630   26.9470 C   0  0  0  0  0  0  0  0  0  0  0  0
  -23.6930   65.8970   23.2410 H   0  0  0  0  0  0  0  0  0  0  0  0
  -24.4130   63.8110   28.9840 C   0  0  0  0  0  0  0  0  0  0  0  0
  -23.9060   62.7180   29.3610 O   0  0  0  0  0  0  0  0  0  0  0  0
  -23.7900   65.0220   29.3040 O   0  0  0  0  0  0  0  0  0  0  0  0
  -22.3790   65.1920   29.2740 C   0  0  0  0  0  0  0  0  0  0  0  0
  1  2  2  0  0  0  0
  1 21  1  0  0  0  0
  3  2  1  0  0  0  0
  3  4  1  0  0  0  0
  5  3  2  0  0  0  0
  6 19  1  0  0  0  0
  6  5  1  0  0  0  0
  7  6  2  0  0  0  0
  8  7  1  0  0  0  0
  9 10  2  0  0  0  0
  9  7  1  0  0  0  0
 10 18  1  0  0  0  0
 11 12  1  0  0  0  0
 11 10  1  0  0  0  0
 12 17  1  0  0  0  0
 13 12  2  0  0  0  0
 13 14  1  0  0  0  0
 14 15  2  0  0  0  0
 15 16  1  0  0  0  0
 17 18  1  0  0  0  0
 17 16  2  0  0  0  0
 18 19  2  0  0  0  0
 19  1  1  0  0  0  0
 20 11  1  0  0  0  0
 21 23  1  0  0  0  0
 21 22  2  0  0  0  0
 24 23  1  0  0  0  0
M  END
>  <REMARK>
 VINA RESULT:      -7.8      1.645      4.960
  2 active torsions:
  status: ('A' for Active; 'I' for Inactive)
    1  A    between atoms: O1_2  and  C2_3 
    2  A    between atoms: C2_3  and  C3_5 

>  <TORSDO>
F 2

$$$$
../pdbqt/decoy.vina_out.36.pdbqt
 OpenBabel06052021513D

 24 27  0  0  0  0  0  0  0  0999 V2000
  -21.6940   64.2920   24.2640 C   0  0  0  0  0  0  0  0  0  0  0  0
  -23.0370   64.2900   24.6710 C   0  0  0  0  0  0  0  0  0  0  0  0
  -23.5470   65.3580   25.4130 C   0  0  0  0  0  0  0  0  0  0  0  0
  -24.9580   65.3310   25.9100 C   0  0  0  0  0  0  0  0  0  0  0  0
  -22.7210   66.3640   25.7960 N   0  0  0  0  0  0  0  0  0  0  0  0
  -21.4250   66.4370   25.3940 C   0  0  0  0  0  0  0  0  0  0  0  0
  -20.5990   67.4870   25.8760 C   0  0  0  0  0  0  0  0  0  0  0  0
  -21.1400   68.4970   26.8500 C   0  0  0  0  0  0  0  0  0  0  0  0
  -19.2590   67.5760   25.4550 C   0  0  0  0  0  0  0  0  0  0  0  0
  -18.8010   66.6790   24.4970 C   0  0  0  0  0  0  0  0  0  0  0  0
  -17.6110   66.7460   23.8670 N   0  0  0  0  0  0  0  0  0  0  0  0
  -17.6860   65.8360   22.8800 C   0  0  0  0  0  0  0  0  0  0  0  0
  -16.7420   65.6300   21.8750 C   0  0  0  0  0  0  0  0  0  0  0  0
  -17.0740   64.7570   20.8260 C   0  0  0  0  0  0  0  0  0  0  0  0
  -18.3460   64.1540   20.7760 C   0  0  0  0  0  0  0  0  0  0  0  0
  -19.2900   64.3920   21.7910 C   0  0  0  0  0  0  0  0  0  0  0  0
  -18.9090   65.1890   22.8780 C   0  0  0  0  0  0  0  0  0  0  0  0
  -19.6140   65.6840   23.9760 C   0  0  0  0  0  0  0  0  0  0  0  0
  -20.9070   65.4500   24.5040 C   0  0  0  0  0  0  0  0  0  0  0  0
  -16.8390   67.4280   24.0400 H   0  0  0  0  0  0  0  0  0  0  0  0
  -21.1060   63.0000   23.8480 C   0  0  0  0  0  0  0  0  0  0  0  0
  -21.5560   62.4010   22.8320 O   0  0  0  0  0  0  0  0  0  0  0  0
  -20.0900   62.4190   24.6140 O   0  0  0  0  0  0  0  0  0  0  0  0
  -19.9430   61.0120   24.7560 C   0  0  0  0  0  0  0  0  0  0  0  0
  1 19  2  0  0  0  0
  1  2  1  0  0  0  0
  2  3  2  0  0  0  0
  3  5  1  0  0  0  0
  3  4  1  0  0  0  0
  6  5  2  0  0  0  0
  6  7  1  0  0  0  0
  7  8  1  0  0  0  0
  9  7  2  0  0  0  0
 10  9  1  0  0  0  0
 11 20  1  0  0  0  0
 11 10  1  0  0  0  0
 12 11  1  0  0  0  0
 13 12  2  0  0  0  0
 14 13  1  0  0  0  0
 15 14  2  0  0  0  0
 15 16  1  0  0  0  0
 16 17  2  0  0  0  0
 17 12  1  0  0  0  0
 17 18  1  0  0  0  0
 18 10  2  0  0  0  0
 18 19  1  0  0  0  0
 19  6  1  0  0  0  0
 21  1  1  0  0  0  0
 21 23  1  0  0  0  0
 22 21  2  0  0  0  0
 23 24  1  0  0  0  0
M  END
>  <REMARK>
 VINA RESULT:      -7.2      3.398      7.394
  2 active torsions:
  status: ('A' for Active; 'I' for Inactive)
    1  A    between atoms: O1_2  and  C2_3 
    2  A    between atoms: C2_3  and  C3_5 

>  <TORSDO>
F 2

$$$$
../pdbqt/decoy.vina_out.36.pdbqt
 OpenBabel06052021513D

 24 27  0  0  0  0  0  0  0  0999 V2000
  -22.3280   65.2390   27.2700 C   0  0  0  0  0  0  0  0  0  0  0  0
  -21.4050   66.0100   26.5460 C   0  0  0  0  0  0  0  0  0  0  0  0
  -21.8060   66.6790   25.3870 C   0  0  0  0  0  0  0  0  0  0  0  0
  -20.8110   67.4450   24.5720 C   0  0  0  0  0  0  0  0  0  0  0  0
  -23.0720   66.5240   24.9260 N   0  0  0  0  0  0  0  0  0  0  0  0
  -24.0170   65.8260   25.6090 C   0  0  0  0  0  0  0  0  0  0  0  0
  -25.3090   65.6550   25.0440 C   0  0  0  0  0  0  0  0  0  0  0  0
  -25.6270   66.2160   23.6850 C   0  0  0  0  0  0  0  0  0  0  0  0
  -26.2950   64.9430   25.7520 C   0  0  0  0  0  0  0  0  0  0  0  0
  -26.0050   64.4990   27.0370 C   0  0  0  0  0  0  0  0  0  0  0  0
  -26.8930   63.9660   27.9000 N   0  0  0  0  0  0  0  0  0  0  0  0
  -26.2410   63.9010   29.0750 C   0  0  0  0  0  0  0  0  0  0  0  0
  -26.7910   63.5380   30.3030 C   0  0  0  0  0  0  0  0  0  0  0  0
  -26.0030   63.7000   31.4540 C   0  0  0  0  0  0  0  0  0  0  0  0
  -24.7150   64.2620   31.3610 C   0  0  0  0  0  0  0  0  0  0  0  0
  -24.1880   64.6400   30.1140 C   0  0  0  0  0  0  0  0  0  0  0  0
  -24.9490   64.3830   28.9660 C   0  0  0  0  0  0  0  0  0  0  0  0
  -24.7660   64.7090   27.6220 C   0  0  0  0  0  0  0  0  0  0  0  0
  -23.6940   65.2590   26.8780 C   0  0  0  0  0  0  0  0  0  0  0  0
  -27.8990   63.7500   27.7220 H   0  0  0  0  0  0  0  0  0  0  0  0
  -21.7870   64.2510   28.2270 C   0  0  0  0  0  0  0  0  0  0  0  0
  -21.9360   63.0160   28.0100 O   0  0  0  0  0  0  0  0  0  0  0  0
  -21.1600   64.6880   29.3990 O   0  0  0  0  0  0  0  0  0  0  0  0
  -19.9870   64.0740   29.9170 C   0  0  0  0  0  0  0  0  0  0  0  0
  1 21  1  0  0  0  0
  2  1  2  0  0  0  0
  3  2  1  0  0  0  0
  4  3  1  0  0  0  0
  5  3  2  0  0  0  0
  5  6  1  0  0  0  0
  6 19  1  0  0  0  0
  7  6  2  0  0  0  0
  7  9  1  0  0  0  0
  8  7  1  0  0  0  0
  9 10  2  0  0  0  0
 10 18  1  0  0  0  0
 10 11  1  0  0  0  0
 11 12  1  0  0  0  0
 12 13  1  0  0  0  0
 13 14  2  0  0  0  0
 15 14  1  0  0  0  0
 16 15  2  0  0  0  0
 17 12  2  0  0  0  0
 17 16  1  0  0  0  0
 18 17  1  0  0  0  0
 19  1  1  0  0  0  0
 19 18  2  0  0  0  0
 20 11  1  0  0  0  0
 21 23  1  0  0  0  0
 22 21  2  0  0  0  0
 23 24  1  0  0  0  0
M  END
>  <REMARK>
 VINA RESULT:      -7.1      1.366      1.920
  2 active torsions:
  status: ('A' for Active; 'I' for Inactive)
    1  A    between atoms: O1_2  and  C2_3 
    2  A    between atoms: C2_3  and  C3_5 

>  <TORSDO>
F 2

$$$$
../pdbqt/decoy.vina_out.36.pdbqt
 OpenBabel06052021513D

 24 27  0  0  0  0  0  0  0  0999 V2000
  -23.0640   63.6510   27.3010 C   0  0  0  0  0  0  0  0  0  0  0  0
  -24.0430   62.6530   27.4220 C   0  0  0  0  0  0  0  0  0  0  0  0
  -24.8130   62.5640   28.5840 C   0  0  0  0  0  0  0  0  0  0  0  0
  -25.8110   61.4610   28.7480 C   0  0  0  0  0  0  0  0  0  0  0  0
  -24.5640   63.4010   29.6210 N   0  0  0  0  0  0  0  0  0  0  0  0
  -23.6580   64.4120   29.5410 C   0  0  0  0  0  0  0  0  0  0  0  0
  -23.4050   65.2190   30.6830 C   0  0  0  0  0  0  0  0  0  0  0  0
  -24.1090   64.9430   31.9830 C   0  0  0  0  0  0  0  0  0  0  0  0
  -22.4770   66.2740   30.6040 C   0  0  0  0  0  0  0  0  0  0  0  0
  -21.8950   66.5600   29.3740 C   0  0  0  0  0  0  0  0  0  0  0  0
  -21.1330   67.6370   29.1000 N   0  0  0  0  0  0  0  0  0  0  0  0
  -20.9850   67.6300   27.7630 C   0  0  0  0  0  0  0  0  0  0  0  0
  -20.3810   68.6240   26.9950 C   0  0  0  0  0  0  0  0  0  0  0  0
  -20.4780   68.5290   25.5970 C   0  0  0  0  0  0  0  0  0  0  0  0
  -21.2100   67.4820   25.0040 C   0  0  0  0  0  0  0  0  0  0  0  0
  -21.8270   66.5010   25.7990 C   0  0  0  0  0  0  0  0  0  0  0  0
  -21.6410   66.5570   27.1860 C   0  0  0  0  0  0  0  0  0  0  0  0
  -22.1770   65.8150   28.2390 C   0  0  0  0  0  0  0  0  0  0  0  0
  -22.9620   64.6390   28.3170 C   0  0  0  0  0  0  0  0  0  0  0  0
  -20.8160   68.3760   29.7670 H   0  0  0  0  0  0  0  0  0  0  0  0
  -22.0260   63.4650   26.2640 C   0  0  0  0  0  0  0  0  0  0  0  0
  -22.3500   63.4540   25.0430 O   0  0  0  0  0  0  0  0  0  0  0  0
  -20.6970   63.2480   26.6400 O   0  0  0  0  0  0  0  0  0  0  0  0
  -19.6750   62.9300   25.7030 C   0  0  0  0  0  0  0  0  0  0  0  0
  1  2  2  0  0  0  0
  1 19  1  0  0  0  0
  2  3  1  0  0  0  0
  3  4  1  0  0  0  0
  3  5  2  0  0  0  0
  6  5  1  0  0  0  0
  6  7  2  0  0  0  0
  7  8  1  0  0  0  0
  9  7  1  0  0  0  0
 10  9  2  0  0  0  0
 11 10  1  0  0  0  0
 11 20  1  0  0  0  0
 12 11  1  0  0  0  0
 13 12  2  0  0  0  0
 14 13  1  0  0  0  0
 15 14  2  0  0  0  0
 15 16  1  0  0  0  0
 16 17  2  0  0  0  0
 17 12  1  0  0  0  0
 17 18  1  0  0  0  0
 18 19  2  0  0  0  0
 18 10  1  0  0  0  0
 19  6  1  0  0  0  0
 21 23  1  0  0  0  0
 21  1  1  0  0  0  0
 22 21  2  0  0  0  0
 24 23  1  0  0  0  0
M  END
>  <REMARK>
 VINA RESULT:      -6.9      2.897      6.219
  2 active torsions:
  status: ('A' for Active; 'I' for Inactive)
    1  A    between atoms: O1_2  and  C2_3 
    2  A    between atoms: C2_3  and  C3_5 

>  <TORSDO>
F 2

$$$$
