../pdbqt/decoy.vina_out.30.pdbqt
 OpenBabel06052021513D

 14 15  0  0  0  0  0  0  0  0999 V2000
  -25.2890   64.6570   26.1710 C   0  0  0  0  0  0  0  0  0  0  0  0
  -24.1650   63.8230   26.2850 C   0  0  0  0  0  0  0  0  0  0  0  0
  -24.1620   62.7630   27.1990 C   0  0  0  0  0  0  0  0  0  0  0  0
  -25.2830   62.5220   28.0060 C   0  0  0  0  0  0  0  0  0  0  0  0
  -25.2940   61.3610   28.9560 C   0  0  0  0  0  0  0  0  0  0  0  0
  -26.4240   63.3260   27.8590 C   0  0  0  0  0  0  0  0  0  0  0  0
  -26.4260   64.3830   26.9450 C   0  0  0  0  0  0  0  0  0  0  0  0
  -25.3320   65.7660   25.1970 C   0  0  0  0  0  0  0  0  0  0  0  0
  -26.4110   66.0720   24.4620 C   0  0  0  0  0  0  0  0  0  0  0  0
  -26.4550   67.0900   23.4400 C   0  0  0  0  0  0  0  0  0  0  0  0
  -27.7250   65.3540   24.4260 C   0  0  0  0  0  0  0  0  0  0  0  0
  -25.5330   67.9080   23.1800 O   0  0  0  0  0  0  0  0  0  0  0  0
  -27.6520   67.0540   22.7610 O   0  0  0  0  0  0  0  0  0  0  0  0
  -28.4860   66.0080   23.2490 C   0  0  0  0  0  0  0  0  0  0  0  0
  1  2  2  0  0  0  0
  1  7  1  0  0  0  0
  2  3  1  0  0  0  0
  3  4  2  0  0  0  0
  4  5  1  0  0  0  0
  6  4  1  0  0  0  0
  7  6  2  0  0  0  0
  8  1  1  0  0  0  0
  9  8  2  0  0  0  0
 10  9  1  0  0  0  0
 11  9  1  0  0  0  0
 12 10  2  0  0  0  0
 13 14  1  0  0  0  0
 13 10  1  0  0  0  0
 14 11  2  0  0  0  0
M  END
>  <MODEL>
1

>  <REMARK>
 VINA RESULT:      -8.3      0.000      0.000
  1 active torsions:
  status: ('A' for Active; 'I' for Inactive)
    1  A    between atoms: C1_1  and  C6_8 

>  <TORSDO>
F 1

$$$$
../pdbqt/decoy.vina_out.30.pdbqt
 OpenBabel06052021513D

 14 15  0  0  0  0  0  0  0  0999 V2000
  -27.2870   64.8860   25.9540 C   0  0  0  0  0  0  0  0  0  0  0  0
  -28.1520   65.1410   24.8770 C   0  0  0  0  0  0  0  0  0  0  0  0
  -27.7150   65.8970   23.7840 C   0  0  0  0  0  0  0  0  0  0  0  0
  -26.4080   66.4040   23.7520 C   0  0  0  0  0  0  0  0  0  0  0  0
  -25.9280   67.1800   22.5610 C   0  0  0  0  0  0  0  0  0  0  0  0
  -25.5290   66.1090   24.8050 C   0  0  0  0  0  0  0  0  0  0  0  0
  -25.9660   65.3530   25.8960 C   0  0  0  0  0  0  0  0  0  0  0  0
  -27.7110   64.0690   27.1080 C   0  0  0  0  0  0  0  0  0  0  0  0
  -26.9000   63.2240   27.7610 C   0  0  0  0  0  0  0  0  0  0  0  0
  -27.3080   62.3470   28.8340 C   0  0  0  0  0  0  0  0  0  0  0  0
  -25.4740   62.8960   27.4430 C   0  0  0  0  0  0  0  0  0  0  0  0
  -28.4420   62.3380   29.3820 O   0  0  0  0  0  0  0  0  0  0  0  0
  -26.2870   61.4960   29.1880 O   0  0  0  0  0  0  0  0  0  0  0  0
  -25.1350   61.7110   28.3780 C   0  0  0  0  0  0  0  0  0  0  0  0
  1  8  1  0  0  0  0
  2  1  2  0  0  0  0
  3  2  1  0  0  0  0
  4  3  2  0  0  0  0
  4  6  1  0  0  0  0
  5  4  1  0  0  0  0
  6  7  2  0  0  0  0
  7  1  1  0  0  0  0
  8  9  2  0  0  0  0
  9 10  1  0  0  0  0
 10 13  1  0  0  0  0
 10 12  2  0  0  0  0
 11  9  1  0  0  0  0
 11 14  2  0  0  0  0
 14 13  1  0  0  0  0
M  END
>  <REMARK>
 VINA RESULT:      -7.5      3.349      5.973
  1 active torsions:
  status: ('A' for Active; 'I' for Inactive)
    1  A    between atoms: C1_1  and  C6_8 

>  <TORSDO>
F 1

$$$$
../pdbqt/decoy.vina_out.30.pdbqt
 OpenBabel06052021513D

 14 15  0  0  0  0  0  0  0  0999 V2000
  -24.8370   65.8920   25.2020 C   0  0  0  0  0  0  0  0  0  0  0  0
  -25.7730   65.1730   25.9650 C   0  0  0  0  0  0  0  0  0  0  0  0
  -27.1280   65.1890   25.6190 C   0  0  0  0  0  0  0  0  0  0  0  0
  -27.5640   65.9200   24.5040 C   0  0  0  0  0  0  0  0  0  0  0  0
  -29.0120   65.9030   24.1100 C   0  0  0  0  0  0  0  0  0  0  0  0
  -26.6240   66.5990   23.7140 C   0  0  0  0  0  0  0  0  0  0  0  0
  -25.2700   66.5820   24.0610 C   0  0  0  0  0  0  0  0  0  0  0  0
  -23.3970   65.8720   25.5280 C   0  0  0  0  0  0  0  0  0  0  0  0
  -22.5540   64.9130   25.1190 C   0  0  0  0  0  0  0  0  0  0  0  0
  -21.1630   64.8190   25.4940 C   0  0  0  0  0  0  0  0  0  0  0  0
  -22.8830   63.6820   24.3320 C   0  0  0  0  0  0  0  0  0  0  0  0
  -20.5210   65.6790   26.1530 O   0  0  0  0  0  0  0  0  0  0  0  0
  -20.6110   63.6420   25.0420 O   0  0  0  0  0  0  0  0  0  0  0  0
  -21.5770   62.8520   24.3570 C   0  0  0  0  0  0  0  0  0  0  0  0
  1  8  1  0  0  0  0
  1  2  2  0  0  0  0
  3  2  1  0  0  0  0
  4  3  2  0  0  0  0
  5  4  1  0  0  0  0
  6  7  2  0  0  0  0
  6  4  1  0  0  0  0
  7  1  1  0  0  0  0
  9 10  1  0  0  0  0
  9  8  2  0  0  0  0
 10 12  2  0  0  0  0
 11 14  2  0  0  0  0
 11  9  1  0  0  0  0
 13 10  1  0  0  0  0
 14 13  1  0  0  0  0
M  END
>  <REMARK>
 VINA RESULT:      -7.5      3.439      5.360
  1 active torsions:
  status: ('A' for Active; 'I' for Inactive)
    1  A    between atoms: C1_1  and  C6_8 

>  <TORSDO>
F 1

$$$$
../pdbqt/decoy.vina_out.30.pdbqt
 OpenBabel06052021513D

 14 15  0  0  0  0  0  0  0  0999 V2000
  -24.8380   65.8560   25.1440 C   0  0  0  0  0  0  0  0  0  0  0  0
  -25.2860   66.5930   24.0360 C   0  0  0  0  0  0  0  0  0  0  0  0
  -26.6450   66.6120   23.7030 C   0  0  0  0  0  0  0  0  0  0  0  0
  -27.5720   65.8980   24.4760 C   0  0  0  0  0  0  0  0  0  0  0  0
  -29.0340   65.9520   24.1430 C   0  0  0  0  0  0  0  0  0  0  0  0
  -27.1310   65.2010   25.6110 C   0  0  0  0  0  0  0  0  0  0  0  0
  -25.7730   65.1840   25.9430 C   0  0  0  0  0  0  0  0  0  0  0  0
  -23.4140   65.8400   25.5360 C   0  0  0  0  0  0  0  0  0  0  0  0
  -22.5490   64.8840   25.1640 C   0  0  0  0  0  0  0  0  0  0  0  0
  -21.1770   64.7940   25.6030 C   0  0  0  0  0  0  0  0  0  0  0  0
  -22.8380   63.6540   24.3600 C   0  0  0  0  0  0  0  0  0  0  0  0
  -20.5700   65.6550   26.2920 O   0  0  0  0  0  0  0  0  0  0  0  0
  -20.6010   63.6200   25.1740 O   0  0  0  0  0  0  0  0  0  0  0  0
  -21.5320   62.8280   24.4440 C   0  0  0  0  0  0  0  0  0  0  0  0
  1  8  1  0  0  0  0
  1  7  2  0  0  0  0
  2  1  1  0  0  0  0
  3  2  2  0  0  0  0
  3  4  1  0  0  0  0
  4  6  2  0  0  0  0
  5  4  1  0  0  0  0
  6  7  1  0  0  0  0
  9  8  2  0  0  0  0
  9 10  1  0  0  0  0
 10 12  2  0  0  0  0
 11 14  2  0  0  0  0
 11  9  1  0  0  0  0
 13 10  1  0  0  0  0
 14 13  1  0  0  0  0
M  END
>  <REMARK>
 VINA RESULT:      -7.5      3.456      5.346
  1 active torsions:
  status: ('A' for Active; 'I' for Inactive)
    1  A    between atoms: C1_1  and  C6_8 

>  <TORSDO>
F 1

$$$$
../pdbqt/decoy.vina_out.30.pdbqt
 OpenBabel06052021513D

 14 15  0  0  0  0  0  0  0  0999 V2000
  -24.0980   63.6530   26.7080 C   0  0  0  0  0  0  0  0  0  0  0  0
  -25.0500   62.8840   27.3990 C   0  0  0  0  0  0  0  0  0  0  0  0
  -26.3950   63.2660   27.4060 C   0  0  0  0  0  0  0  0  0  0  0  0
  -26.8080   64.4170   26.7180 C   0  0  0  0  0  0  0  0  0  0  0  0
  -28.2570   64.8020   26.6930 C   0  0  0  0  0  0  0  0  0  0  0  0
  -25.8660   65.1580   25.9890 C   0  0  0  0  0  0  0  0  0  0  0  0
  -24.5210   64.7750   25.9820 C   0  0  0  0  0  0  0  0  0  0  0  0
  -22.6750   63.2600   26.6600 C   0  0  0  0  0  0  0  0  0  0  0  0
  -22.0050   63.0240   25.5230 C   0  0  0  0  0  0  0  0  0  0  0  0
  -20.6420   62.5530   25.4480 C   0  0  0  0  0  0  0  0  0  0  0  0
  -22.5400   63.0470   24.1250 C   0  0  0  0  0  0  0  0  0  0  0  0
  -19.8600   62.4130   26.4260 O   0  0  0  0  0  0  0  0  0  0  0  0
  -20.2950   62.2580   24.1500 O   0  0  0  0  0  0  0  0  0  0  0  0
  -21.3870   62.4810   23.2630 C   0  0  0  0  0  0  0  0  0  0  0  0
  1  2  2  0  0  0  0
  2  3  1  0  0  0  0
  4  3  2  0  0  0  0
  5  4  1  0  0  0  0
  6  4  1  0  0  0  0
  7  6  2  0  0  0  0
  7  1  1  0  0  0  0
  8  1  1  0  0  0  0
  9  8  2  0  0  0  0
 10  9  1  0  0  0  0
 10 12  2  0  0  0  0
 11  9  1  0  0  0  0
 13 10  1  0  0  0  0
 14 11  2  0  0  0  0
 14 13  1  0  0  0  0
M  END
>  <REMARK>
 VINA RESULT:      -7.4      3.675      5.391
  1 active torsions:
  status: ('A' for Active; 'I' for Inactive)
    1  A    between atoms: C1_1  and  C6_8 

>  <TORSDO>
F 1

$$$$
../pdbqt/decoy.vina_out.30.pdbqt
 OpenBabel06052021513D

 14 15  0  0  0  0  0  0  0  0999 V2000
  -24.8140   64.7190   26.3820 C   0  0  0  0  0  0  0  0  0  0  0  0
  -23.6840   65.5500   26.3090 C   0  0  0  0  0  0  0  0  0  0  0  0
  -22.4290   65.0700   26.6960 C   0  0  0  0  0  0  0  0  0  0  0  0
  -22.2860   63.7530   27.1560 C   0  0  0  0  0  0  0  0  0  0  0  0
  -20.9330   63.2270   27.5320 C   0  0  0  0  0  0  0  0  0  0  0  0
  -23.4060   62.9080   27.1840 C   0  0  0  0  0  0  0  0  0  0  0  0
  -24.6600   63.3890   26.7960 C   0  0  0  0  0  0  0  0  0  0  0  0
  -26.1480   65.1900   25.9550 C   0  0  0  0  0  0  0  0  0  0  0  0
  -26.3820   65.8020   24.7840 C   0  0  0  0  0  0  0  0  0  0  0  0
  -27.6540   66.3510   24.3780 C   0  0  0  0  0  0  0  0  0  0  0  0
  -25.3840   66.1770   23.7330 C   0  0  0  0  0  0  0  0  0  0  0  0
  -28.7400   66.2290   25.0060 O   0  0  0  0  0  0  0  0  0  0  0  0
  -27.5340   67.0490   23.1990 O   0  0  0  0  0  0  0  0  0  0  0  0
  -26.1870   67.0460   22.7360 C   0  0  0  0  0  0  0  0  0  0  0  0
  1  7  1  0  0  0  0
  2  1  2  0  0  0  0
  2  3  1  0  0  0  0
  3  4  2  0  0  0  0
  4  6  1  0  0  0  0
  4  5  1  0  0  0  0
  7  6  2  0  0  0  0
  8  1  1  0  0  0  0
  9  8  2  0  0  0  0
 10  9  1  0  0  0  0
 10 12  2  0  0  0  0
 11  9  1  0  0  0  0
 13 10  1  0  0  0  0
 14 13  1  0  0  0  0
 14 11  2  0  0  0  0
M  END
>  <REMARK>
 VINA RESULT:      -7.3      1.606      2.622
  1 active torsions:
  status: ('A' for Active; 'I' for Inactive)
    1  A    between atoms: C1_1  and  C6_8 

>  <TORSDO>
F 1

$$$$
../pdbqt/decoy.vina_out.30.pdbqt
 OpenBabel06052021513D

 14 15  0  0  0  0  0  0  0  0999 V2000
  -22.6470   66.0530   25.1610 C   0  0  0  0  0  0  0  0  0  0  0  0
  -23.7130   66.5980   24.4270 C   0  0  0  0  0  0  0  0  0  0  0  0
  -25.0330   66.2470   24.7310 C   0  0  0  0  0  0  0  0  0  0  0  0
  -25.3030   65.3490   25.7750 C   0  0  0  0  0  0  0  0  0  0  0  0
  -26.7200   65.0050   26.1260 C   0  0  0  0  0  0  0  0  0  0  0  0
  -24.2410   64.8420   26.5390 C   0  0  0  0  0  0  0  0  0  0  0  0
  -22.9230   65.1940   26.2350 C   0  0  0  0  0  0  0  0  0  0  0  0
  -21.2460   66.4260   24.8810 C   0  0  0  0  0  0  0  0  0  0  0  0
  -20.6120   67.4440   25.4810 C   0  0  0  0  0  0  0  0  0  0  0  0
  -19.2750   67.8880   25.1640 C   0  0  0  0  0  0  0  0  0  0  0  0
  -21.1750   68.4150   26.4730 C   0  0  0  0  0  0  0  0  0  0  0  0
  -18.4800   67.3140   24.3730 O   0  0  0  0  0  0  0  0  0  0  0  0
  -18.9700   69.0480   25.8390 O   0  0  0  0  0  0  0  0  0  0  0  0
  -20.0680   69.4840   26.6330 C   0  0  0  0  0  0  0  0  0  0  0  0
  1  7  2  0  0  0  0
  2  3  2  0  0  0  0
  2  1  1  0  0  0  0
  3  4  1  0  0  0  0
  4  5  1  0  0  0  0
  4  6  2  0  0  0  0
  7  6  1  0  0  0  0
  8  1  1  0  0  0  0
  8  9  2  0  0  0  0
  9 11  1  0  0  0  0
 10  9  1  0  0  0  0
 10 13  1  0  0  0  0
 11 14  2  0  0  0  0
 12 10  2  0  0  0  0
 13 14  1  0  0  0  0
M  END
>  <REMARK>
 VINA RESULT:      -7.0      4.424      5.970
  1 active torsions:
  status: ('A' for Active; 'I' for Inactive)
    1  A    between atoms: C1_1  and  C6_8 

>  <TORSDO>
F 1

$$$$
../pdbqt/decoy.vina_out.30.pdbqt
 OpenBabel06052021513D

 14 15  0  0  0  0  0  0  0  0999 V2000
  -23.6690   64.7000   25.3930 C   0  0  0  0  0  0  0  0  0  0  0  0
  -24.7680   65.5250   25.1050 C   0  0  0  0  0  0  0  0  0  0  0  0
  -25.9990   65.3060   25.7320 C   0  0  0  0  0  0  0  0  0  0  0  0
  -26.1460   64.2620   26.6580 C   0  0  0  0  0  0  0  0  0  0  0  0
  -27.4550   64.0530   27.3590 C   0  0  0  0  0  0  0  0  0  0  0  0
  -25.0350   63.4670   26.9810 C   0  0  0  0  0  0  0  0  0  0  0  0
  -23.8050   63.6880   26.3540 C   0  0  0  0  0  0  0  0  0  0  0  0
  -22.3500   64.9240   24.7670 C   0  0  0  0  0  0  0  0  0  0  0  0
  -21.6220   66.0370   24.9420 C   0  0  0  0  0  0  0  0  0  0  0  0
  -20.3740   66.3220   24.2740 C   0  0  0  0  0  0  0  0  0  0  0  0
  -21.9940   67.2590   25.7230 C   0  0  0  0  0  0  0  0  0  0  0  0
  -19.7390   65.5250   23.5340 O   0  0  0  0  0  0  0  0  0  0  0  0
  -19.9560   67.6050   24.5430 O   0  0  0  0  0  0  0  0  0  0  0  0
  -20.8860   68.2840   25.3810 C   0  0  0  0  0  0  0  0  0  0  0  0
  1  7  1  0  0  0  0
  2  1  2  0  0  0  0
  2  3  1  0  0  0  0
  3  4  2  0  0  0  0
  4  6  1  0  0  0  0
  4  5  1  0  0  0  0
  7  6  2  0  0  0  0
  8  9  2  0  0  0  0
  8  1  1  0  0  0  0
  9 11  1  0  0  0  0
 10 13  1  0  0  0  0
 10  9  1  0  0  0  0
 12 10  2  0  0  0  0
 13 14  1  0  0  0  0
 14 11  2  0  0  0  0
M  END
>  <REMARK>
 VINA RESULT:      -7.0      3.412      4.850
  1 active torsions:
  status: ('A' for Active; 'I' for Inactive)
    1  A    between atoms: C1_1  and  C6_8 

>  <TORSDO>
F 1

$$$$
../pdbqt/decoy.vina_out.30.pdbqt
 OpenBabel06052021513D

 14 15  0  0  0  0  0  0  0  0999 V2000
  -23.7040   65.3470   24.9720 C   0  0  0  0  0  0  0  0  0  0  0  0
  -23.3470   64.0470   24.5770 C   0  0  0  0  0  0  0  0  0  0  0  0
  -22.2360   63.4160   25.1460 C   0  0  0  0  0  0  0  0  0  0  0  0
  -21.4710   64.0750   26.1210 C   0  0  0  0  0  0  0  0  0  0  0  0
  -20.3040   63.3820   26.7600 C   0  0  0  0  0  0  0  0  0  0  0  0
  -21.8560   65.3540   26.5500 C   0  0  0  0  0  0  0  0  0  0  0  0
  -22.9670   65.9830   25.9810 C   0  0  0  0  0  0  0  0  0  0  0  0
  -24.8870   66.0270   24.4080 C   0  0  0  0  0  0  0  0  0  0  0  0
  -26.1330   65.8690   24.8790 C   0  0  0  0  0  0  0  0  0  0  0  0
  -27.3190   66.4490   24.2950 C   0  0  0  0  0  0  0  0  0  0  0  0
  -26.5840   64.9670   25.9860 C   0  0  0  0  0  0  0  0  0  0  0  0
  -27.3380   67.2740   23.3430 O   0  0  0  0  0  0  0  0  0  0  0  0
  -28.4540   65.9740   24.9110 O   0  0  0  0  0  0  0  0  0  0  0  0
  -28.1290   65.0330   25.9290 C   0  0  0  0  0  0  0  0  0  0  0  0
  1  7  1  0  0  0  0
  2  1  2  0  0  0  0
  2  3  1  0  0  0  0
  3  4  2  0  0  0  0
  4  6  1  0  0  0  0
  4  5  1  0  0  0  0
  7  6  2  0  0  0  0
  8  9  2  0  0  0  0
  8  1  1  0  0  0  0
  9 11  1  0  0  0  0
 10  9  1  0  0  0  0
 10 13  1  0  0  0  0
 12 10  2  0  0  0  0
 13 14  1  0  0  0  0
 14 11  2  0  0  0  0
M  END
>  <REMARK>
 VINA RESULT:      -6.9      2.199      3.142
  1 active torsions:
  status: ('A' for Active; 'I' for Inactive)
    1  A    between atoms: C1_1  and  C6_8 

>  <TORSDO>
F 1

$$$$
