../pdbqt/decoy.vina_out.45.pdbqt
 OpenBabel06052021513D

 20 22  0  0  0  0  0  0  0  0999 V2000
  -27.2870   66.2220   24.7100 C   0  0  0  0  0  0  0  0  0  0  0  0
  -28.4410   65.6890   25.3420 C   0  0  0  0  0  0  0  0  0  0  0  0
  -28.3290   64.6640   26.3000 C   0  0  0  0  0  0  0  0  0  0  0  0
  -27.0520   64.1960   26.6000 C   0  0  0  0  0  0  0  0  0  0  0  0
  -26.6120   63.2260   27.4720 C   0  0  0  0  0  0  0  0  0  0  0  0
  -27.2940   62.3830   28.3470 C   0  0  0  0  0  0  0  0  0  0  0  0
  -26.5310   61.4840   29.1150 C   0  0  0  0  0  0  0  0  0  0  0  0
  -25.1240   61.4510   28.9910 C   0  0  0  0  0  0  0  0  0  0  0  0
  -24.4620   62.3140   28.0980 C   0  0  0  0  0  0  0  0  0  0  0  0
  -25.2380   63.1960   27.3480 C   0  0  0  0  0  0  0  0  0  0  0  0
  -24.8030   64.1000   26.4430 N   0  0  0  0  0  0  0  0  0  0  0  0
  -23.8160   64.2890   26.1540 H   0  0  0  0  0  0  0  0  0  0  0  0
  -25.9240   64.7060   25.9940 C   0  0  0  0  0  0  0  0  0  0  0  0
  -26.0070   65.7200   25.0420 C   0  0  0  0  0  0  0  0  0  0  0  0
  -27.4180   67.3200   23.6900 C   0  0  0  0  0  0  0  0  0  0  0  0
  -26.3790   67.1660   22.6240 C   0  0  0  0  0  0  0  0  0  0  0  0
  -25.1790   67.6100   22.8220 N   0  0  0  0  0  0  0  0  0  0  0  0
  -24.4380   67.5230   22.0890 H   0  0  0  0  0  0  0  0  0  0  0  0
  -26.7240   66.5670   21.4140 O   0  0  0  0  0  0  0  0  0  0  0  0
  -27.6680   66.2440   21.2340 H   0  0  0  0  0  0  0  0  0  0  0  0
  1 14  2  0  0  0  0
  1  2  1  0  0  0  0
  2  3  2  0  0  0  0
  3  4  1  0  0  0  0
  4  5  1  0  0  0  0
  5  6  1  0  0  0  0
  6  7  2  0  0  0  0
  8  7  1  0  0  0  0
  9  8  2  0  0  0  0
 10  5  2  0  0  0  0
 10  9  1  0  0  0  0
 11 10  1  0  0  0  0
 12 11  1  0  0  0  0
 13 11  1  0  0  0  0
 13  4  2  0  0  0  0
 14 13  1  0  0  0  0
 15  1  1  0  0  0  0
 16 17  2  0  0  0  0
 16 15  1  0  0  0  0
 18 17  1  0  0  0  0
 19 16  1  0  0  0  0
 20 19  1  0  0  0  0
M  END
>  <MODEL>
1

>  <REMARK>
 VINA RESULT:      -9.0      0.000      0.000
  3 active torsions:
  status: ('A' for Active; 'I' for Inactive)
    1  A    between atoms: C1_3  and  O1_4 
    2  A    between atoms: C1_3  and  C2_6 
    3  A    between atoms: C2_6  and  C3_7 

>  <TORSDO>
F 3

$$$$
../pdbqt/decoy.vina_out.45.pdbqt
 OpenBabel06052021513D

 20 22  0  0  0  0  0  0  0  0999 V2000
  -22.7270   66.1300   25.8140 C   0  0  0  0  0  0  0  0  0  0  0  0
  -23.2690   65.2900   26.8210 C   0  0  0  0  0  0  0  0  0  0  0  0
  -24.6200   64.8970   26.7810 C   0  0  0  0  0  0  0  0  0  0  0  0
  -25.3980   65.3630   25.7250 C   0  0  0  0  0  0  0  0  0  0  0  0
  -26.7220   65.1660   25.4030 C   0  0  0  0  0  0  0  0  0  0  0  0
  -27.7320   64.4350   26.0260 C   0  0  0  0  0  0  0  0  0  0  0  0
  -29.0050   64.4400   25.4270 C   0  0  0  0  0  0  0  0  0  0  0  0
  -29.2340   65.1650   24.2360 C   0  0  0  0  0  0  0  0  0  0  0  0
  -28.1950   65.8950   23.6300 C   0  0  0  0  0  0  0  0  0  0  0  0
  -26.9420   65.8760   24.2400 C   0  0  0  0  0  0  0  0  0  0  0  0
  -25.8210   66.5030   23.8230 N   0  0  0  0  0  0  0  0  0  0  0  0
  -25.7050   67.1060   22.9770 H   0  0  0  0  0  0  0  0  0  0  0  0
  -24.8840   66.1800   24.7400 C   0  0  0  0  0  0  0  0  0  0  0  0
  -23.5500   66.5830   24.7570 C   0  0  0  0  0  0  0  0  0  0  0  0
  -21.2810   66.5400   25.8650 C   0  0  0  0  0  0  0  0  0  0  0  0
  -21.0420   67.7180   24.9720 C   0  0  0  0  0  0  0  0  0  0  0  0
  -21.1930   68.9190   25.4320 N   0  0  0  0  0  0  0  0  0  0  0  0
  -21.0420   69.7580   24.8270 H   0  0  0  0  0  0  0  0  0  0  0  0
  -20.6840   67.5070   23.6420 O   0  0  0  0  0  0  0  0  0  0  0  0
  -20.1680   68.2030   23.1170 H   0  0  0  0  0  0  0  0  0  0  0  0
  1 15  1  0  0  0  0
  1  2  2  0  0  0  0
  3  2  1  0  0  0  0
  4  3  2  0  0  0  0
  5  4  1  0  0  0  0
  5  6  1  0  0  0  0
  7  6  2  0  0  0  0
  8  7  1  0  0  0  0
  9  8  2  0  0  0  0
  9 10  1  0  0  0  0
 10  5  2  0  0  0  0
 11 10  1  0  0  0  0
 11 13  1  0  0  0  0
 12 11  1  0  0  0  0
 13 14  2  0  0  0  0
 13  4  1  0  0  0  0
 14  1  1  0  0  0  0
 16 17  2  0  0  0  0
 16 15  1  0  0  0  0
 18 17  1  0  0  0  0
 19 16  1  0  0  0  0
 20 19  1  0  0  0  0
M  END
>  <REMARK>
 VINA RESULT:      -8.9      3.071      4.884
  3 active torsions:
  status: ('A' for Active; 'I' for Inactive)
    1  A    between atoms: C1_3  and  O1_4 
    2  A    between atoms: C1_3  and  C2_6 
    3  A    between atoms: C2_6  and  C3_7 

>  <TORSDO>
F 3

$$$$
../pdbqt/decoy.vina_out.45.pdbqt
 OpenBabel06052021513D

 20 22  0  0  0  0  0  0  0  0999 V2000
  -27.1290   66.0310   24.7460 C   0  0  0  0  0  0  0  0  0  0  0  0
  -25.7280   65.8920   24.9250 C   0  0  0  0  0  0  0  0  0  0  0  0
  -25.2090   64.9830   25.8650 C   0  0  0  0  0  0  0  0  0  0  0  0
  -26.1160   64.2320   26.6080 C   0  0  0  0  0  0  0  0  0  0  0  0
  -25.9370   63.2780   27.5840 C   0  0  0  0  0  0  0  0  0  0  0  0
  -24.7870   62.7420   28.1600 C   0  0  0  0  0  0  0  0  0  0  0  0
  -24.9520   61.7610   29.1550 C   0  0  0  0  0  0  0  0  0  0  0  0
  -26.2460   61.3460   29.5450 C   0  0  0  0  0  0  0  0  0  0  0  0
  -27.3890   61.9050   28.9450 C   0  0  0  0  0  0  0  0  0  0  0  0
  -27.2010   62.8750   27.9620 C   0  0  0  0  0  0  0  0  0  0  0  0
  -28.1580   63.5310   27.2690 N   0  0  0  0  0  0  0  0  0  0  0  0
  -29.1940   63.4230   27.3530 H   0  0  0  0  0  0  0  0  0  0  0  0
  -27.4800   64.3580   26.4430 C   0  0  0  0  0  0  0  0  0  0  0  0
  -28.0190   65.2510   25.5200 C   0  0  0  0  0  0  0  0  0  0  0  0
  -27.6720   67.0030   23.7340 C   0  0  0  0  0  0  0  0  0  0  0  0
  -26.6250   67.3330   22.7160 C   0  0  0  0  0  0  0  0  0  0  0  0
  -26.6370   66.7450   21.5630 N   0  0  0  0  0  0  0  0  0  0  0  0
  -25.9120   66.9510   20.8380 H   0  0  0  0  0  0  0  0  0  0  0  0
  -25.6300   68.2560   23.0320 O   0  0  0  0  0  0  0  0  0  0  0  0
  -24.6600   68.0930   22.7860 H   0  0  0  0  0  0  0  0  0  0  0  0
  1  2  2  0  0  0  0
  1 14  1  0  0  0  0
  2  3  1  0  0  0  0
  3  4  2  0  0  0  0
  4  5  1  0  0  0  0
  5 10  2  0  0  0  0
  5  6  1  0  0  0  0
  6  7  2  0  0  0  0
  7  8  1  0  0  0  0
  9  8  2  0  0  0  0
 10  9  1  0  0  0  0
 11 12  1  0  0  0  0
 11 10  1  0  0  0  0
 13  4  1  0  0  0  0
 13 11  1  0  0  0  0
 14 13  2  0  0  0  0
 15  1  1  0  0  0  0
 16 19  1  0  0  0  0
 16 15  1  0  0  0  0
 17 16  2  0  0  0  0
 18 17  1  0  0  0  0
 20 19  1  0  0  0  0
M  END
>  <REMARK>
 VINA RESULT:      -8.7      1.285      2.090
  3 active torsions:
  status: ('A' for Active; 'I' for Inactive)
    1  A    between atoms: C1_3  and  O1_4 
    2  A    between atoms: C1_3  and  C2_6 
    3  A    between atoms: C2_6  and  C3_7 

>  <TORSDO>
F 3

$$$$
../pdbqt/decoy.vina_out.45.pdbqt
 OpenBabel06052021513D

 20 22  0  0  0  0  0  0  0  0999 V2000
  -26.5410   63.1230   28.4640 C   0  0  0  0  0  0  0  0  0  0  0  0
  -27.7980   63.3060   27.8310 C   0  0  0  0  0  0  0  0  0  0  0  0
  -27.9170   64.1200   26.6900 C   0  0  0  0  0  0  0  0  0  0  0  0
  -26.7640   64.7360   26.2110 C   0  0  0  0  0  0  0  0  0  0  0  0
  -26.5470   65.5720   25.1400 C   0  0  0  0  0  0  0  0  0  0  0  0
  -27.4080   66.0890   24.1730 C   0  0  0  0  0  0  0  0  0  0  0  0
  -26.8580   66.9350   23.1940 C   0  0  0  0  0  0  0  0  0  0  0  0
  -25.4770   67.2400   23.2040 C   0  0  0  0  0  0  0  0  0  0  0  0
  -24.6320   66.7040   24.1920 C   0  0  0  0  0  0  0  0  0  0  0  0
  -25.1990   65.8690   25.1530 C   0  0  0  0  0  0  0  0  0  0  0  0
  -24.5680   65.2560   26.1780 N   0  0  0  0  0  0  0  0  0  0  0  0
  -23.5530   65.3060   26.4230 H   0  0  0  0  0  0  0  0  0  0  0  0
  -25.5370   64.5650   26.8170 C   0  0  0  0  0  0  0  0  0  0  0  0
  -25.3920   63.7650   27.9480 C   0  0  0  0  0  0  0  0  0  0  0  0
  -26.4250   62.2460   29.6820 C   0  0  0  0  0  0  0  0  0  0  0  0
  -26.5260   63.0710   30.9270 C   0  0  0  0  0  0  0  0  0  0  0  0
  -26.2920   62.5320   32.0810 N   0  0  0  0  0  0  0  0  0  0  0  0
  -26.3660   63.0840   32.9660 H   0  0  0  0  0  0  0  0  0  0  0  0
  -26.8980   64.4110   30.8320 O   0  0  0  0  0  0  0  0  0  0  0  0
  -26.8040   64.9250   29.9640 H   0  0  0  0  0  0  0  0  0  0  0  0
  1 15  1  0  0  0  0
  2  1  2  0  0  0  0
  3  2  1  0  0  0  0
  4  3  2  0  0  0  0
  4 13  1  0  0  0  0
  5 10  1  0  0  0  0
  5  4  1  0  0  0  0
  6  5  2  0  0  0  0
  7  8  2  0  0  0  0
  7  6  1  0  0  0  0
  8  9  1  0  0  0  0
  9 10  2  0  0  0  0
 10 11  1  0  0  0  0
 11 12  1  0  0  0  0
 11 13  1  0  0  0  0
 13 14  2  0  0  0  0
 14  1  1  0  0  0  0
 15 16  1  0  0  0  0
 16 17  2  0  0  0  0
 17 18  1  0  0  0  0
 19 16  1  0  0  0  0
 20 19  1  0  0  0  0
M  END
>  <REMARK>
 VINA RESULT:      -8.4      2.968      6.077
  3 active torsions:
  status: ('A' for Active; 'I' for Inactive)
    1  A    between atoms: C1_3  and  O1_4 
    2  A    between atoms: C1_3  and  C2_6 
    3  A    between atoms: C2_6  and  C3_7 

>  <TORSDO>
F 3

$$$$
../pdbqt/decoy.vina_out.45.pdbqt
 OpenBabel06052021513D

 20 22  0  0  0  0  0  0  0  0999 V2000
  -22.5980   66.1970   25.8860 C   0  0  0  0  0  0  0  0  0  0  0  0
  -23.1110   66.8080   24.7120 C   0  0  0  0  0  0  0  0  0  0  0  0
  -24.4520   66.6200   24.3290 C   0  0  0  0  0  0  0  0  0  0  0  0
  -25.2490   65.8160   25.1400 C   0  0  0  0  0  0  0  0  0  0  0  0
  -26.5710   65.4420   25.0460 C   0  0  0  0  0  0  0  0  0  0  0  0
  -27.5580   65.7410   24.1090 C   0  0  0  0  0  0  0  0  0  0  0  0
  -28.8360   65.1870   24.3080 C   0  0  0  0  0  0  0  0  0  0  0  0
  -29.0920   64.3590   25.4250 C   0  0  0  0  0  0  0  0  0  0  0  0
  -28.0750   64.0740   26.3550 C   0  0  0  0  0  0  0  0  0  0  0  0
  -26.8180   64.6340   26.1370 C   0  0  0  0  0  0  0  0  0  0  0  0
  -25.7150   64.4880   26.9050 N   0  0  0  0  0  0  0  0  0  0  0  0
  -25.6200   63.9330   27.7850 H   0  0  0  0  0  0  0  0  0  0  0  0
  -24.7630   65.2170   26.2820 C   0  0  0  0  0  0  0  0  0  0  0  0
  -23.4390   65.3870   26.6830 C   0  0  0  0  0  0  0  0  0  0  0  0
  -21.1640   66.4090   26.2870 C   0  0  0  0  0  0  0  0  0  0  0  0
  -20.7700   67.8380   26.0750 C   0  0  0  0  0  0  0  0  0  0  0  0
  -21.1280   68.7420   26.9300 N   0  0  0  0  0  0  0  0  0  0  0  0
  -20.8750   69.7470   26.8000 H   0  0  0  0  0  0  0  0  0  0  0  0
  -20.0410   68.1850   24.9390 O   0  0  0  0  0  0  0  0  0  0  0  0
  -20.4950   68.3430   24.0470 H   0  0  0  0  0  0  0  0  0  0  0  0
  1 15  1  0  0  0  0
  1 14  2  0  0  0  0
  2  1  1  0  0  0  0
  3  2  2  0  0  0  0
  3  4  1  0  0  0  0
  4 13  2  0  0  0  0
  5  4  1  0  0  0  0
  5 10  2  0  0  0  0
  6  7  2  0  0  0  0
  6  5  1  0  0  0  0
  7  8  1  0  0  0  0
  8  9  2  0  0  0  0
 10  9  1  0  0  0  0
 10 11  1  0  0  0  0
 11 12  1  0  0  0  0
 13 14  1  0  0  0  0
 13 11  1  0  0  0  0
 16 15  1  0  0  0  0
 16 17  2  0  0  0  0
 18 17  1  0  0  0  0
 19 16  1  0  0  0  0
 20 19  1  0  0  0  0
M  END
>  <REMARK>
 VINA RESULT:      -8.1      3.380      5.003
  3 active torsions:
  status: ('A' for Active; 'I' for Inactive)
    1  A    between atoms: C1_3  and  O1_4 
    2  A    between atoms: C1_3  and  C2_6 
    3  A    between atoms: C2_6  and  C3_7 

>  <TORSDO>
F 3

$$$$
../pdbqt/decoy.vina_out.45.pdbqt
 OpenBabel06052021513D

 20 22  0  0  0  0  0  0  0  0999 V2000
  -26.4670   65.8420   24.9730 C   0  0  0  0  0  0  0  0  0  0  0  0
  -27.0300   64.9910   25.9590 C   0  0  0  0  0  0  0  0  0  0  0  0
  -26.2090   64.3180   26.8830 C   0  0  0  0  0  0  0  0  0  0  0  0
  -24.8340   64.5150   26.7910 C   0  0  0  0  0  0  0  0  0  0  0  0
  -23.7840   64.0160   27.5270 C   0  0  0  0  0  0  0  0  0  0  0  0
  -23.7400   63.1430   28.6120 C   0  0  0  0  0  0  0  0  0  0  0  0
  -22.4770   62.8260   29.1450 C   0  0  0  0  0  0  0  0  0  0  0  0
  -21.3040   63.3820   28.5870 C   0  0  0  0  0  0  0  0  0  0  0  0
  -21.3790   64.2610   27.4900 C   0  0  0  0  0  0  0  0  0  0  0  0
  -22.6400   64.5610   26.9790 C   0  0  0  0  0  0  0  0  0  0  0  0
  -22.9280   65.3750   25.9400 N   0  0  0  0  0  0  0  0  0  0  0  0
  -22.2570   65.9140   25.3480 H   0  0  0  0  0  0  0  0  0  0  0  0
  -24.2740   65.3380   25.8370 C   0  0  0  0  0  0  0  0  0  0  0  0
  -25.0650   66.0160   24.9100 C   0  0  0  0  0  0  0  0  0  0  0  0
  -27.3540   66.5600   23.9930 C   0  0  0  0  0  0  0  0  0  0  0  0
  -26.5340   67.1770   22.9040 C   0  0  0  0  0  0  0  0  0  0  0  0
  -26.5540   66.6710   21.7120 N   0  0  0  0  0  0  0  0  0  0  0  0
  -25.9830   67.0780   20.9370 H   0  0  0  0  0  0  0  0  0  0  0  0
  -25.7330   68.2810   23.1920 O   0  0  0  0  0  0  0  0  0  0  0  0
  -24.7310   68.2620   23.0400 H   0  0  0  0  0  0  0  0  0  0  0  0
  1  2  1  0  0  0  0
  2  3  2  0  0  0  0
  4  3  1  0  0  0  0
  4  5  1  0  0  0  0
  5  6  2  0  0  0  0
  6  7  1  0  0  0  0
  8  7  2  0  0  0  0
  9  8  1  0  0  0  0
 10  9  2  0  0  0  0
 10  5  1  0  0  0  0
 11 10  1  0  0  0  0
 12 11  1  0  0  0  0
 13 11  1  0  0  0  0
 13  4  2  0  0  0  0
 14  1  2  0  0  0  0
 14 13  1  0  0  0  0
 15  1  1  0  0  0  0
 16 19  1  0  0  0  0
 16 15  1  0  0  0  0
 17 16  2  0  0  0  0
 18 17  1  0  0  0  0
 20 19  1  0  0  0  0
M  END
>  <REMARK>
 VINA RESULT:      -8.0      2.009      2.614
  3 active torsions:
  status: ('A' for Active; 'I' for Inactive)
    1  A    between atoms: C1_3  and  O1_4 
    2  A    between atoms: C1_3  and  C2_6 
    3  A    between atoms: C2_6  and  C3_7 

>  <TORSDO>
F 3

$$$$
../pdbqt/decoy.vina_out.45.pdbqt
 OpenBabel06052021513D

 20 22  0  0  0  0  0  0  0  0999 V2000
  -26.4340   65.4420   25.1440 C   0  0  0  0  0  0  0  0  0  0  0  0
  -25.9780   64.7310   26.2840 C   0  0  0  0  0  0  0  0  0  0  0  0
  -24.6430   64.8420   26.7140 C   0  0  0  0  0  0  0  0  0  0  0  0
  -23.7930   65.6670   25.9830 C   0  0  0  0  0  0  0  0  0  0  0  0
  -22.4630   65.9840   26.1390 C   0  0  0  0  0  0  0  0  0  0  0  0
  -21.5160   65.5850   27.0800 C   0  0  0  0  0  0  0  0  0  0  0  0
  -20.2140   66.1030   26.9550 C   0  0  0  0  0  0  0  0  0  0  0  0
  -19.8950   66.9960   25.9060 C   0  0  0  0  0  0  0  0  0  0  0  0
  -20.8720   67.3810   24.9700 C   0  0  0  0  0  0  0  0  0  0  0  0
  -22.1550   66.8550   25.1130 C   0  0  0  0  0  0  0  0  0  0  0  0
  -23.2290   67.0960   24.3290 N   0  0  0  0  0  0  0  0  0  0  0  0
  -23.2780   67.7130   23.4870 H   0  0  0  0  0  0  0  0  0  0  0  0
  -24.2240   66.3630   24.8730 C   0  0  0  0  0  0  0  0  0  0  0  0
  -25.5410   66.2700   24.4260 C   0  0  0  0  0  0  0  0  0  0  0  0
  -27.8650   65.3190   24.6950 C   0  0  0  0  0  0  0  0  0  0  0  0
  -28.2300   66.4640   23.8020 C   0  0  0  0  0  0  0  0  0  0  0  0
  -28.8150   67.5080   24.2940 N   0  0  0  0  0  0  0  0  0  0  0  0
  -29.0880   68.3160   23.6900 H   0  0  0  0  0  0  0  0  0  0  0  0
  -27.9570   66.3810   22.4380 O   0  0  0  0  0  0  0  0  0  0  0  0
  -27.5960   67.1740   21.9210 H   0  0  0  0  0  0  0  0  0  0  0  0
  1  2  2  0  0  0  0
  2  3  1  0  0  0  0
  4  5  1  0  0  0  0
  4  3  2  0  0  0  0
  5  6  2  0  0  0  0
  7  6  1  0  0  0  0
  8  7  2  0  0  0  0
  9 10  2  0  0  0  0
  9  8  1  0  0  0  0
 10  5  1  0  0  0  0
 11 13  1  0  0  0  0
 11 10  1  0  0  0  0
 12 11  1  0  0  0  0
 13  4  1  0  0  0  0
 14 13  2  0  0  0  0
 14  1  1  0  0  0  0
 15  1  1  0  0  0  0
 16 17  2  0  0  0  0
 16 15  1  0  0  0  0
 18 17  1  0  0  0  0
 19 16  1  0  0  0  0
 20 19  1  0  0  0  0
M  END
>  <REMARK>
 VINA RESULT:      -7.9      3.353      4.666
  3 active torsions:
  status: ('A' for Active; 'I' for Inactive)
    1  A    between atoms: C1_3  and  O1_4 
    2  A    between atoms: C1_3  and  C2_6 
    3  A    between atoms: C2_6  and  C3_7 

>  <TORSDO>
F 3

$$$$
../pdbqt/decoy.vina_out.45.pdbqt
 OpenBabel06052021513D

 20 22  0  0  0  0  0  0  0  0999 V2000
  -22.4220   64.8490   25.1310 C   0  0  0  0  0  0  0  0  0  0  0  0
  -23.5660   65.6650   24.9350 C   0  0  0  0  0  0  0  0  0  0  0  0
  -24.7840   65.3620   25.5720 C   0  0  0  0  0  0  0  0  0  0  0  0
  -24.8230   64.2390   26.3940 C   0  0  0  0  0  0  0  0  0  0  0  0
  -25.8360   63.6850   27.1430 C   0  0  0  0  0  0  0  0  0  0  0  0
  -27.1650   64.0590   27.3320 C   0  0  0  0  0  0  0  0  0  0  0  0
  -27.9540   63.2590   28.1800 C   0  0  0  0  0  0  0  0  0  0  0  0
  -27.4010   62.1220   28.8100 C   0  0  0  0  0  0  0  0  0  0  0  0
  -26.0550   61.7690   28.6010 C   0  0  0  0  0  0  0  0  0  0  0  0
  -25.2930   62.5750   27.7570 C   0  0  0  0  0  0  0  0  0  0  0  0
  -23.9930   62.4120   27.4270 N   0  0  0  0  0  0  0  0  0  0  0  0
  -23.3430   61.6590   27.7470 H   0  0  0  0  0  0  0  0  0  0  0  0
  -23.7180   63.4390   26.5930 C   0  0  0  0  0  0  0  0  0  0  0  0
  -22.5010   63.7160   25.9740 C   0  0  0  0  0  0  0  0  0  0  0  0
  -21.1240   65.1840   24.4480 C   0  0  0  0  0  0  0  0  0  0  0  0
  -20.7420   66.6040   24.7270 C   0  0  0  0  0  0  0  0  0  0  0  0
  -20.7130   67.4670   23.7620 N   0  0  0  0  0  0  0  0  0  0  0  0
  -20.4410   68.4630   23.9290 H   0  0  0  0  0  0  0  0  0  0  0  0
  -20.3950   66.9780   26.0240 O   0  0  0  0  0  0  0  0  0  0  0  0
  -19.7380   67.7290   26.2000 H   0  0  0  0  0  0  0  0  0  0  0  0
  1 14  1  0  0  0  0
  2  1  2  0  0  0  0
  2  3  1  0  0  0  0
  3  4  2  0  0  0  0
  4 13  1  0  0  0  0
  4  5  1  0  0  0  0
  5  6  2  0  0  0  0
  5 10  1  0  0  0  0
  6  7  1  0  0  0  0
  7  8  2  0  0  0  0
  9  8  1  0  0  0  0
 10  9  2  0  0  0  0
 11 12  1  0  0  0  0
 11 10  1  0  0  0  0
 13 11  1  0  0  0  0
 14 13  2  0  0  0  0
 15 16  1  0  0  0  0
 15  1  1  0  0  0  0
 16 19  1  0  0  0  0
 17 18  1  0  0  0  0
 17 16  2  0  0  0  0
 19 20  1  0  0  0  0
M  END
>  <REMARK>
 VINA RESULT:      -7.8      3.243      4.062
  3 active torsions:
  status: ('A' for Active; 'I' for Inactive)
    1  A    between atoms: C1_3  and  O1_4 
    2  A    between atoms: C1_3  and  C2_6 
    3  A    between atoms: C2_6  and  C3_7 

>  <TORSDO>
F 3

$$$$
../pdbqt/decoy.vina_out.45.pdbqt
 OpenBabel06052021513D

 20 22  0  0  0  0  0  0  0  0999 V2000
  -24.3560   63.4260   28.0060 C   0  0  0  0  0  0  0  0  0  0  0  0
  -25.6190   62.7970   28.1580 C   0  0  0  0  0  0  0  0  0  0  0  0
  -26.7240   63.2060   27.3890 C   0  0  0  0  0  0  0  0  0  0  0  0
  -26.5320   64.2440   26.4820 C   0  0  0  0  0  0  0  0  0  0  0  0
  -27.3900   64.8630   25.6000 C   0  0  0  0  0  0  0  0  0  0  0  0
  -28.7390   64.6610   25.3190 C   0  0  0  0  0  0  0  0  0  0  0  0
  -29.3320   65.4820   24.3410 C   0  0  0  0  0  0  0  0  0  0  0  0
  -28.5700   66.4700   23.6770 C   0  0  0  0  0  0  0  0  0  0  0  0
  -27.2080   66.6510   23.9830 C   0  0  0  0  0  0  0  0  0  0  0  0
  -26.6430   65.8270   24.9540 C   0  0  0  0  0  0  0  0  0  0  0  0
  -25.3640   65.8380   25.3900 N   0  0  0  0  0  0  0  0  0  0  0  0
  -24.5880   66.4620   25.0740 H   0  0  0  0  0  0  0  0  0  0  0  0
  -25.3100   64.8630   26.3240 C   0  0  0  0  0  0  0  0  0  0  0  0
  -24.2010   64.4780   27.0740 C   0  0  0  0  0  0  0  0  0  0  0  0
  -23.1800   62.9780   28.8310 C   0  0  0  0  0  0  0  0  0  0  0  0
  -22.9650   63.9130   29.9800 C   0  0  0  0  0  0  0  0  0  0  0  0
  -21.9560   64.7240   29.9730 N   0  0  0  0  0  0  0  0  0  0  0  0
  -21.7780   65.3800   30.7670 H   0  0  0  0  0  0  0  0  0  0  0  0
  -23.8420   63.8810   31.0620 O   0  0  0  0  0  0  0  0  0  0  0  0
  -24.8320   63.7030   30.9350 H   0  0  0  0  0  0  0  0  0  0  0  0
  1  2  1  0  0  0  0
  1 15  1  0  0  0  0
  3  2  2  0  0  0  0
  4  3  1  0  0  0  0
  5  4  1  0  0  0  0
  6  5  1  0  0  0  0
  7  6  2  0  0  0  0
  8  9  2  0  0  0  0
  8  7  1  0  0  0  0
  9 10  1  0  0  0  0
 10 11  1  0  0  0  0
 10  5  2  0  0  0  0
 11 13  1  0  0  0  0
 12 11  1  0  0  0  0
 13  4  2  0  0  0  0
 13 14  1  0  0  0  0
 14  1  2  0  0  0  0
 15 16  1  0  0  0  0
 16 19  1  0  0  0  0
 17 16  2  0  0  0  0
 17 18  1  0  0  0  0
 20 19  1  0  0  0  0
M  END
>  <REMARK>
 VINA RESULT:      -7.8      3.051      5.855
  3 active torsions:
  status: ('A' for Active; 'I' for Inactive)
    1  A    between atoms: C1_3  and  O1_4 
    2  A    between atoms: C1_3  and  C2_6 
    3  A    between atoms: C2_6  and  C3_7 

>  <TORSDO>
F 3

$$$$
