../pdbqt/decoy.vina_out.50.pdbqt
 OpenBabel06052021513D

 29 31  0  0  0  0  0  0  0  0999 V2000
  -26.6970   64.6870   26.6090 C   0  0  0  0  0  0  0  0  0  0  0  0
  -25.7920   65.4200   25.8050 C   0  0  0  0  0  0  0  0  0  0  0  0
  -24.4780   64.9760   25.7000 C   0  0  0  0  0  0  0  0  0  0  0  0
  -24.0430   63.8430   26.3590 C   0  0  0  0  0  0  0  0  0  0  0  0
  -24.9020   63.0970   27.1600 C   0  0  0  0  0  0  0  0  0  0  0  0
  -26.2380   63.5180   27.2890 C   0  0  0  0  0  0  0  0  0  0  0  0
  -27.3890   62.4750   28.4110 Br  0  0  0  0  0  0  0  0  0  0  0  0
  -22.6270   63.6410   26.0470 C   0  0  0  0  0  0  0  0  0  0  0  0
  -21.7460   62.6470   26.4650 C   0  0  0  0  0  0  0  0  0  0  0  0
  -20.4200   62.6960   26.0040 C   0  0  0  0  0  0  0  0  0  0  0  0
  -19.9870   63.7310   25.1340 C   0  0  0  0  0  0  0  0  0  0  0  0
  -20.9080   64.7260   24.7280 C   0  0  0  0  0  0  0  0  0  0  0  0
  -22.2170   64.6540   25.1990 C   0  0  0  0  0  0  0  0  0  0  0  0
  -23.3560   65.5300   24.9470 C   0  0  0  0  0  0  0  0  0  0  0  0
  -23.3700   66.5600   24.2230 O   0  0  0  0  0  0  0  0  0  0  0  0
  -28.0690   65.1270   26.7160 N   0  0  0  0  0  0  0  0  0  0  0  0
  -28.1410   65.9200   27.3960 H   0  0  0  0  0  0  0  0  0  0  0  0
  -28.6540   64.3550   27.1020 H   0  0  0  0  0  0  0  0  0  0  0  0
  -28.5460   65.6030   25.4380 C   0  0  0  0  0  0  0  0  0  0  0  0
  -28.6040   66.8880   25.2280 N   0  0  0  0  0  0  0  0  0  0  0  0
  -29.0620   67.4210   24.0440 O   0  0  0  0  0  0  0  0  0  0  0  0
  -28.4950   68.0860   23.5350 H   0  0  0  0  0  0  0  0  0  0  0  0
  -29.0340   64.6430   24.3720 C   0  0  0  0  0  0  0  0  0  0  0  0
  -28.2180   64.7350   23.2590 F   0  0  0  0  0  0  0  0  0  0  0  0
  -30.3320   64.9170   23.9820 F   0  0  0  0  0  0  0  0  0  0  0  0
  -28.9840   63.3510   24.8620 F   0  0  0  0  0  0  0  0  0  0  0  0
  -18.6250   63.7650   24.6710 N   0  0  0  0  0  0  0  0  0  0  0  0
  -17.8750   64.7180   24.9700 O   0  0  0  0  0  0  0  0  0  0  0  0
  -18.1260   62.7490   23.8900 O   0  0  0  0  0  0  0  0  0  0  0  0
  1 16  1  0  0  0  0
  1  6  2  0  0  0  0
  2  1  1  0  0  0  0
  3  2  2  0  0  0  0
  3  4  1  0  0  0  0
  4  5  2  0  0  0  0
  5  6  1  0  0  0  0
  6  7  1  0  0  0  0
  8  4  1  0  0  0  0
  8  9  1  0  0  0  0
 10  9  2  0  0  0  0
 11 10  1  0  0  0  0
 12 11  2  0  0  0  0
 12 13  1  0  0  0  0
 13  8  2  0  0  0  0
 14 13  1  0  0  0  0
 14  3  1  0  0  0  0
 15 14  2  0  0  0  0
 16 18  1  0  0  0  0
 16 17  1  0  0  0  0
 19 16  1  0  0  0  0
 20 19  2  0  0  0  0
 21 20  1  0  0  0  0
 22 21  1  0  0  0  0
 23 26  1  0  0  0  0
 23 19  1  0  0  0  0
 24 23  1  0  0  0  0
 25 23  1  0  0  0  0
 27 28  2  0  0  0  0
 27 11  1  0  0  0  0
 29 27  2  0  0  0  0
M  END
>  <MODEL>
1

>  <REMARK>
 VINA RESULT:      -8.8      0.000      0.000
  5 active torsions:
  status: ('A' for Active; 'I' for Inactive)
    1  A    between atoms: O1_2  and  N1_3 
    2  A    between atoms: C1_4  and  C2_5 
    3  A    between atoms: C1_4  and  N2_9 
    4  A    between atoms: N2_9  and  C3_12 
    5  A    between atoms: C12_22  and  N3_23 

>  <TORSDO>
F 5

$$$$
../pdbqt/decoy.vina_out.50.pdbqt
 OpenBabel06052021513D

 29 31  0  0  0  0  0  0  0  0999 V2000
  -27.0720   64.4310   26.1810 C   0  0  0  0  0  0  0  0  0  0  0  0
  -25.9180   64.0840   26.9240 C   0  0  0  0  0  0  0  0  0  0  0  0
  -24.7140   64.7120   26.6230 C   0  0  0  0  0  0  0  0  0  0  0  0
  -24.6230   65.6600   25.6220 C   0  0  0  0  0  0  0  0  0  0  0  0
  -25.7340   66.0260   24.8680 C   0  0  0  0  0  0  0  0  0  0  0  0
  -26.9680   65.4100   25.1460 C   0  0  0  0  0  0  0  0  0  0  0  0
  -28.4740   65.9270   24.0800 Br  0  0  0  0  0  0  0  0  0  0  0  0
  -23.2390   66.1300   25.5540 C   0  0  0  0  0  0  0  0  0  0  0  0
  -22.6490   67.0740   24.7170 C   0  0  0  0  0  0  0  0  0  0  0  0
  -21.2780   67.3370   24.8730 C   0  0  0  0  0  0  0  0  0  0  0  0
  -20.5110   66.6590   25.8570 C   0  0  0  0  0  0  0  0  0  0  0  0
  -21.1420   65.7050   26.6920 C   0  0  0  0  0  0  0  0  0  0  0  0
  -22.5030   65.4640   26.5170 C   0  0  0  0  0  0  0  0  0  0  0  0
  -23.3940   64.5510   27.2240 C   0  0  0  0  0  0  0  0  0  0  0  0
  -23.0850   63.7760   28.1680 O   0  0  0  0  0  0  0  0  0  0  0  0
  -28.3340   63.7980   26.4920 N   0  0  0  0  0  0  0  0  0  0  0  0
  -28.2180   62.7580   26.5180 H   0  0  0  0  0  0  0  0  0  0  0  0
  -29.0200   63.9980   25.7320 H   0  0  0  0  0  0  0  0  0  0  0  0
  -28.8010   64.2200   27.7920 C   0  0  0  0  0  0  0  0  0  0  0  0
  -29.3720   65.3850   27.9070 N   0  0  0  0  0  0  0  0  0  0  0  0
  -29.8290   65.8670   29.1130 O   0  0  0  0  0  0  0  0  0  0  0  0
  -29.5080   66.7630   29.4540 H   0  0  0  0  0  0  0  0  0  0  0  0
  -28.5850   63.3630   29.0230 C   0  0  0  0  0  0  0  0  0  0  0  0
  -29.8020   63.1060   29.6270 F   0  0  0  0  0  0  0  0  0  0  0  0
  -27.7640   63.9820   29.9470 F   0  0  0  0  0  0  0  0  0  0  0  0
  -28.0040   62.1650   28.6500 F   0  0  0  0  0  0  0  0  0  0  0  0
  -19.1070   66.9400   26.0030 N   0  0  0  0  0  0  0  0  0  0  0  0
  -18.4300   66.3620   26.8780 O   0  0  0  0  0  0  0  0  0  0  0  0
  -18.4880   67.8520   25.1800 O   0  0  0  0  0  0  0  0  0  0  0  0
  1 16  1  0  0  0  0
  1  2  2  0  0  0  0
  3  2  1  0  0  0  0
  3 14  1  0  0  0  0
  4  3  2  0  0  0  0
  5  6  2  0  0  0  0
  5  4  1  0  0  0  0
  6  1  1  0  0  0  0
  7  6  1  0  0  0  0
  8  4  1  0  0  0  0
  8 13  2  0  0  0  0
  9 10  2  0  0  0  0
  9  8  1  0  0  0  0
 10 11  1  0  0  0  0
 11 27  1  0  0  0  0
 11 12  2  0  0  0  0
 13 12  1  0  0  0  0
 13 14  1  0  0  0  0
 14 15  2  0  0  0  0
 16 17  1  0  0  0  0
 16 19  1  0  0  0  0
 18 16  1  0  0  0  0
 19 20  2  0  0  0  0
 19 23  1  0  0  0  0
 20 21  1  0  0  0  0
 21 22  1  0  0  0  0
 23 24  1  0  0  0  0
 23 25  1  0  0  0  0
 26 23  1  0  0  0  0
 27 28  2  0  0  0  0
 29 27  2  0  0  0  0
M  END
>  <REMARK>
 VINA RESULT:      -8.7      3.243      3.860
  5 active torsions:
  status: ('A' for Active; 'I' for Inactive)
    1  A    between atoms: O1_2  and  N1_3 
    2  A    between atoms: C1_4  and  C2_5 
    3  A    between atoms: C1_4  and  N2_9 
    4  A    between atoms: N2_9  and  C3_12 
    5  A    between atoms: C12_22  and  N3_23 

>  <TORSDO>
F 5

$$$$
../pdbqt/decoy.vina_out.50.pdbqt
 OpenBabel06052021513D

 29 31  0  0  0  0  0  0  0  0999 V2000
  -21.0620   66.0900   26.3870 C   0  0  0  0  0  0  0  0  0  0  0  0
  -21.8940   66.5590   25.3420 C   0  0  0  0  0  0  0  0  0  0  0  0
  -23.2340   66.1870   25.3350 C   0  0  0  0  0  0  0  0  0  0  0  0
  -23.7650   65.3760   26.3190 C   0  0  0  0  0  0  0  0  0  0  0  0
  -22.9800   64.8940   27.3610 C   0  0  0  0  0  0  0  0  0  0  0  0
  -21.6190   65.2500   27.3990 C   0  0  0  0  0  0  0  0  0  0  0  0
  -20.5640   64.5560   28.8390 Br  0  0  0  0  0  0  0  0  0  0  0  0
  -25.1860   65.1730   26.0340 C   0  0  0  0  0  0  0  0  0  0  0  0
  -26.1470   64.4390   26.7260 C   0  0  0  0  0  0  0  0  0  0  0  0
  -27.4580   64.4160   26.2210 C   0  0  0  0  0  0  0  0  0  0  0  0
  -27.7970   65.1200   25.0370 C   0  0  0  0  0  0  0  0  0  0  0  0
  -26.7960   65.8560   24.3580 C   0  0  0  0  0  0  0  0  0  0  0  0
  -25.5050   65.8630   24.8800 C   0  0  0  0  0  0  0  0  0  0  0  0
  -24.2990   66.5260   24.3950 C   0  0  0  0  0  0  0  0  0  0  0  0
  -24.1960   67.2480   23.3680 O   0  0  0  0  0  0  0  0  0  0  0  0
  -19.6710   66.4800   26.4160 N   0  0  0  0  0  0  0  0  0  0  0  0
  -19.1900   66.1640   25.5410 H   0  0  0  0  0  0  0  0  0  0  0  0
  -19.1900   65.9970   27.2060 H   0  0  0  0  0  0  0  0  0  0  0  0
  -19.5530   67.9190   26.4860 C   0  0  0  0  0  0  0  0  0  0  0  0
  -18.8850   68.5390   25.5560 N   0  0  0  0  0  0  0  0  0  0  0  0
  -18.7120   69.9050   25.5590 O   0  0  0  0  0  0  0  0  0  0  0  0
  -18.4570   70.3850   24.7060 H   0  0  0  0  0  0  0  0  0  0  0  0
  -20.1350   68.7010   27.6450 C   0  0  0  0  0  0  0  0  0  0  0  0
  -19.2520   69.6970   28.0200 F   0  0  0  0  0  0  0  0  0  0  0  0
  -20.3730   67.8970   28.7440 F   0  0  0  0  0  0  0  0  0  0  0  0
  -21.3290   69.2790   27.2540 F   0  0  0  0  0  0  0  0  0  0  0  0
  -29.1450   65.0850   24.5330 N   0  0  0  0  0  0  0  0  0  0  0  0
  -29.8460   64.0600   24.6630 O   0  0  0  0  0  0  0  0  0  0  0  0
  -29.6830   66.1810   23.9010 O   0  0  0  0  0  0  0  0  0  0  0  0
  1 16  1  0  0  0  0
  1  6  2  0  0  0  0
  2  1  1  0  0  0  0
  3  2  2  0  0  0  0
  3  4  1  0  0  0  0
  4  5  2  0  0  0  0
  5  6  1  0  0  0  0
  6  7  1  0  0  0  0
  8  4  1  0  0  0  0
  8  9  2  0  0  0  0
 10  9  1  0  0  0  0
 11 10  2  0  0  0  0
 12 13  2  0  0  0  0
 12 11  1  0  0  0  0
 13  8  1  0  0  0  0
 14 13  1  0  0  0  0
 14  3  1  0  0  0  0
 15 14  2  0  0  0  0
 16 19  1  0  0  0  0
 16 18  1  0  0  0  0
 17 16  1  0  0  0  0
 19 23  1  0  0  0  0
 20 21  1  0  0  0  0
 20 19  2  0  0  0  0
 22 21  1  0  0  0  0
 23 24  1  0  0  0  0
 23 25  1  0  0  0  0
 26 23  1  0  0  0  0
 27 28  2  0  0  0  0
 27 11  1  0  0  0  0
 29 27  2  0  0  0  0
M  END
>  <REMARK>
 VINA RESULT:      -8.7      4.452      7.787
  5 active torsions:
  status: ('A' for Active; 'I' for Inactive)
    1  A    between atoms: O1_2  and  N1_3 
    2  A    between atoms: C1_4  and  C2_5 
    3  A    between atoms: C1_4  and  N2_9 
    4  A    between atoms: N2_9  and  C3_12 
    5  A    between atoms: C12_22  and  N3_23 

>  <TORSDO>
F 5

$$$$
../pdbqt/decoy.vina_out.50.pdbqt
 OpenBabel06052021513D

 29 31  0  0  0  0  0  0  0  0999 V2000
  -20.2010   65.2220   25.3530 C   0  0  0  0  0  0  0  0  0  0  0  0
  -21.3420   65.8990   24.8610 C   0  0  0  0  0  0  0  0  0  0  0  0
  -22.6000   65.4980   25.3010 C   0  0  0  0  0  0  0  0  0  0  0  0
  -22.7550   64.4610   26.1990 C   0  0  0  0  0  0  0  0  0  0  0  0
  -21.6580   63.7690   26.7030 C   0  0  0  0  0  0  0  0  0  0  0  0
  -20.3710   64.1480   26.2790 C   0  0  0  0  0  0  0  0  0  0  0  0
  -18.8840   63.1650   26.9820 Br  0  0  0  0  0  0  0  0  0  0  0  0
  -24.1840   64.2860   26.4620 C   0  0  0  0  0  0  0  0  0  0  0  0
  -24.8430   63.3790   27.2880 C   0  0  0  0  0  0  0  0  0  0  0  0
  -26.2450   63.4360   27.3540 C   0  0  0  0  0  0  0  0  0  0  0  0
  -26.9740   64.3910   26.5980 C   0  0  0  0  0  0  0  0  0  0  0  0
  -26.2730   65.2980   25.7670 C   0  0  0  0  0  0  0  0  0  0  0  0
  -24.8830   65.2210   25.7210 C   0  0  0  0  0  0  0  0  0  0  0  0
  -23.9220   66.0170   24.9650 C   0  0  0  0  0  0  0  0  0  0  0  0
  -24.1820   66.9650   24.1780 O   0  0  0  0  0  0  0  0  0  0  0  0
  -18.8870   65.6370   24.9170 N   0  0  0  0  0  0  0  0  0  0  0  0
  -18.1610   64.9790   25.2860 H   0  0  0  0  0  0  0  0  0  0  0  0
  -18.6660   66.5740   25.3200 H   0  0  0  0  0  0  0  0  0  0  0  0
  -18.8040   65.6150   23.4750 C   0  0  0  0  0  0  0  0  0  0  0  0
  -18.8920   66.7400   22.8240 N   0  0  0  0  0  0  0  0  0  0  0  0
  -18.8400   66.8030   21.4500 O   0  0  0  0  0  0  0  0  0  0  0  0
  -18.8950   67.6980   20.9820 H   0  0  0  0  0  0  0  0  0  0  0  0
  -18.6820   64.3120   22.7120 C   0  0  0  0  0  0  0  0  0  0  0  0
  -18.3960   63.2860   23.5950 F   0  0  0  0  0  0  0  0  0  0  0  0
  -17.6770   64.3590   21.7640 F   0  0  0  0  0  0  0  0  0  0  0  0
  -19.8780   64.0390   22.0750 F   0  0  0  0  0  0  0  0  0  0  0  0
  -28.4100   64.4340   26.6770 N   0  0  0  0  0  0  0  0  0  0  0  0
  -29.1110   64.1490   25.6830 O   0  0  0  0  0  0  0  0  0  0  0  0
  -29.0350   64.7920   27.8480 O   0  0  0  0  0  0  0  0  0  0  0  0
  1  6  2  0  0  0  0
  2  3  2  0  0  0  0
  2  1  1  0  0  0  0
  3  4  1  0  0  0  0
  4  8  1  0  0  0  0
  4  5  2  0  0  0  0
  6  5  1  0  0  0  0
  6  7  1  0  0  0  0
  8  9  2  0  0  0  0
  9 10  1  0  0  0  0
 11 27  1  0  0  0  0
 11 10  2  0  0  0  0
 12 11  1  0  0  0  0
 13 12  2  0  0  0  0
 13  8  1  0  0  0  0
 14  3  1  0  0  0  0
 14 13  1  0  0  0  0
 15 14  2  0  0  0  0
 16 17  1  0  0  0  0
 16 18  1  0  0  0  0
 16  1  1  0  0  0  0
 19 16  1  0  0  0  0
 20 19  2  0  0  0  0
 21 20  1  0  0  0  0
 22 21  1  0  0  0  0
 23 19  1  0  0  0  0
 23 24  1  0  0  0  0
 25 23  1  0  0  0  0
 26 23  1  0  0  0  0
 27 29  2  0  0  0  0
 28 27  2  0  0  0  0
M  END
>  <REMARK>
 VINA RESULT:      -8.6      4.168      7.754
  5 active torsions:
  status: ('A' for Active; 'I' for Inactive)
    1  A    between atoms: O1_2  and  N1_3 
    2  A    between atoms: C1_4  and  C2_5 
    3  A    between atoms: C1_4  and  N2_9 
    4  A    between atoms: N2_9  and  C3_12 
    5  A    between atoms: C12_22  and  N3_23 

>  <TORSDO>
F 5

$$$$
../pdbqt/decoy.vina_out.50.pdbqt
 OpenBabel06052021513D

 29 31  0  0  0  0  0  0  0  0999 V2000
  -21.4180   63.6200   27.6300 C   0  0  0  0  0  0  0  0  0  0  0  0
  -22.7840   63.4250   27.9450 C   0  0  0  0  0  0  0  0  0  0  0  0
  -23.7480   64.0340   27.1480 C   0  0  0  0  0  0  0  0  0  0  0  0
  -23.4020   64.8190   26.0660 C   0  0  0  0  0  0  0  0  0  0  0  0
  -22.0700   65.0360   25.7260 C   0  0  0  0  0  0  0  0  0  0  0  0
  -21.0690   64.4350   26.5110 C   0  0  0  0  0  0  0  0  0  0  0  0
  -19.2460   64.7670   26.0240 Br  0  0  0  0  0  0  0  0  0  0  0  0
  -24.6290   65.3090   25.4370 C   0  0  0  0  0  0  0  0  0  0  0  0
  -24.8050   66.1280   24.3250 C   0  0  0  0  0  0  0  0  0  0  0  0
  -26.1170   66.4450   23.9320 C   0  0  0  0  0  0  0  0  0  0  0  0
  -27.2350   65.9440   24.6500 C   0  0  0  0  0  0  0  0  0  0  0  0
  -27.0200   65.1130   25.7760 C   0  0  0  0  0  0  0  0  0  0  0  0
  -25.7100   64.8150   26.1430 C   0  0  0  0  0  0  0  0  0  0  0  0
  -25.2050   63.9980   27.2410 C   0  0  0  0  0  0  0  0  0  0  0  0
  -25.8900   63.3820   28.1000 O   0  0  0  0  0  0  0  0  0  0  0  0
  -20.4050   62.9810   28.4400 N   0  0  0  0  0  0  0  0  0  0  0  0
  -19.4680   63.0760   27.9840 H   0  0  0  0  0  0  0  0  0  0  0  0
  -20.6010   61.9580   28.4990 H   0  0  0  0  0  0  0  0  0  0  0  0
  -20.3270   63.6110   29.7380 C   0  0  0  0  0  0  0  0  0  0  0  0
  -19.9420   64.8530   29.8100 N   0  0  0  0  0  0  0  0  0  0  0  0
  -19.8250   65.5190   31.0090 O   0  0  0  0  0  0  0  0  0  0  0  0
  -19.3040   66.3850   31.0590 H   0  0  0  0  0  0  0  0  0  0  0  0
  -20.6230   62.8380   31.0070 C   0  0  0  0  0  0  0  0  0  0  0  0
  -21.6880   63.4250   31.6670 F   0  0  0  0  0  0  0  0  0  0  0  0
  -19.5400   62.8180   31.8650 F   0  0  0  0  0  0  0  0  0  0  0  0
  -20.9550   61.5360   30.6830 F   0  0  0  0  0  0  0  0  0  0  0  0
  -28.5710   66.2780   24.2340 N   0  0  0  0  0  0  0  0  0  0  0  0
  -28.8870   67.4630   23.9980 O   0  0  0  0  0  0  0  0  0  0  0  0
  -29.5240   65.2970   24.0900 O   0  0  0  0  0  0  0  0  0  0  0  0
  1  2  1  0  0  0  0
  1 16  1  0  0  0  0
  3 14  1  0  0  0  0
  3  2  2  0  0  0  0
  4  3  1  0  0  0  0
  5  4  2  0  0  0  0
  5  6  1  0  0  0  0
  6  1  2  0  0  0  0
  7  6  1  0  0  0  0
  8  4  1  0  0  0  0
  8 13  2  0  0  0  0
  9  8  1  0  0  0  0
 10  9  2  0  0  0  0
 10 11  1  0  0  0  0
 11 12  2  0  0  0  0
 12 13  1  0  0  0  0
 13 14  1  0  0  0  0
 14 15  2  0  0  0  0
 16 18  1  0  0  0  0
 16 19  1  0  0  0  0
 17 16  1  0  0  0  0
 19 20  2  0  0  0  0
 19 23  1  0  0  0  0
 20 21  1  0  0  0  0
 21 22  1  0  0  0  0
 23 24  1  0  0  0  0
 23 25  1  0  0  0  0
 26 23  1  0  0  0  0
 27 11  1  0  0  0  0
 28 27  2  0  0  0  0
 29 27  2  0  0  0  0
M  END
>  <REMARK>
 VINA RESULT:      -8.3      4.871      8.065
  5 active torsions:
  status: ('A' for Active; 'I' for Inactive)
    1  A    between atoms: O1_2  and  N1_3 
    2  A    between atoms: C1_4  and  C2_5 
    3  A    between atoms: C1_4  and  N2_9 
    4  A    between atoms: N2_9  and  C3_12 
    5  A    between atoms: C12_22  and  N3_23 

>  <TORSDO>
F 5

$$$$
../pdbqt/decoy.vina_out.50.pdbqt
 OpenBabel06052021513D

 29 31  0  0  0  0  0  0  0  0999 V2000
  -20.2230   64.1990   25.6440 C   0  0  0  0  0  0  0  0  0  0  0  0
  -21.1790   63.4650   26.3870 C   0  0  0  0  0  0  0  0  0  0  0  0
  -22.5190   63.8270   26.2960 C   0  0  0  0  0  0  0  0  0  0  0  0
  -22.9320   64.8780   25.5010 C   0  0  0  0  0  0  0  0  0  0  0  0
  -22.0230   65.6240   24.7570 C   0  0  0  0  0  0  0  0  0  0  0  0
  -20.6590   65.2860   24.8260 C   0  0  0  0  0  0  0  0  0  0  0  0
  -19.4330   66.3420   23.8010 Br  0  0  0  0  0  0  0  0  0  0  0  0
  -24.3860   65.0020   25.6150 C   0  0  0  0  0  0  0  0  0  0  0  0
  -25.2630   65.9010   25.0140 C   0  0  0  0  0  0  0  0  0  0  0  0
  -26.6320   65.7910   25.3050 C   0  0  0  0  0  0  0  0  0  0  0  0
  -27.1130   64.7910   26.1910 C   0  0  0  0  0  0  0  0  0  0  0  0
  -26.1940   63.8930   26.7860 C   0  0  0  0  0  0  0  0  0  0  0  0
  -24.8420   64.0230   26.4790 C   0  0  0  0  0  0  0  0  0  0  0  0
  -23.6950   63.2490   26.9400 C   0  0  0  0  0  0  0  0  0  0  0  0
  -23.7140   62.2730   27.7360 O   0  0  0  0  0  0  0  0  0  0  0  0
  -18.8290   63.8260   25.7170 N   0  0  0  0  0  0  0  0  0  0  0  0
  -18.6580   63.2360   26.5650 H   0  0  0  0  0  0  0  0  0  0  0  0
  -18.2440   64.6820   25.8330 H   0  0  0  0  0  0  0  0  0  0  0  0
  -18.4550   63.0470   24.5590 C   0  0  0  0  0  0  0  0  0  0  0  0
  -19.1720   62.0060   24.2440 N   0  0  0  0  0  0  0  0  0  0  0  0
  -18.8720   61.2030   23.1660 O   0  0  0  0  0  0  0  0  0  0  0  0
  -18.0540   61.3970   22.6020 H   0  0  0  0  0  0  0  0  0  0  0  0
  -17.2180   63.3830   23.7500 C   0  0  0  0  0  0  0  0  0  0  0  0
  -17.5870   63.7220   22.4610 F   0  0  0  0  0  0  0  0  0  0  0  0
  -16.3380   62.3180   23.6830 F   0  0  0  0  0  0  0  0  0  0  0  0
  -16.5680   64.4560   24.3310 F   0  0  0  0  0  0  0  0  0  0  0  0
  -28.5190   64.6930   26.4790 N   0  0  0  0  0  0  0  0  0  0  0  0
  -29.3230   64.3130   25.6020 O   0  0  0  0  0  0  0  0  0  0  0  0
  -29.0020   65.0170   27.7250 O   0  0  0  0  0  0  0  0  0  0  0  0
  1 16  1  0  0  0  0
  1  2  2  0  0  0  0
  3  2  1  0  0  0  0
  3 14  1  0  0  0  0
  4  8  1  0  0  0  0
  4  3  2  0  0  0  0
  5  6  2  0  0  0  0
  5  4  1  0  0  0  0
  6  1  1  0  0  0  0
  7  6  1  0  0  0  0
  8 13  2  0  0  0  0
  9 10  2  0  0  0  0
  9  8  1  0  0  0  0
 10 11  1  0  0  0  0
 11 27  1  0  0  0  0
 11 12  2  0  0  0  0
 13 12  1  0  0  0  0
 13 14  1  0  0  0  0
 14 15  2  0  0  0  0
 16 18  1  0  0  0  0
 16 17  1  0  0  0  0
 19 16  1  0  0  0  0
 20 19  2  0  0  0  0
 21 20  1  0  0  0  0
 22 21  1  0  0  0  0
 23 26  1  0  0  0  0
 23 19  1  0  0  0  0
 24 23  1  0  0  0  0
 25 23  1  0  0  0  0
 27 29  2  0  0  0  0
 28 27  2  0  0  0  0
M  END
>  <REMARK>
 VINA RESULT:      -8.3      4.829      8.530
  5 active torsions:
  status: ('A' for Active; 'I' for Inactive)
    1  A    between atoms: O1_2  and  N1_3 
    2  A    between atoms: C1_4  and  C2_5 
    3  A    between atoms: C1_4  and  N2_9 
    4  A    between atoms: N2_9  and  C3_12 
    5  A    between atoms: C12_22  and  N3_23 

>  <TORSDO>
F 5

$$$$
../pdbqt/decoy.vina_out.50.pdbqt
 OpenBabel06052021513D

 29 31  0  0  0  0  0  0  0  0999 V2000
  -20.7320   65.8480   27.2510 C   0  0  0  0  0  0  0  0  0  0  0  0
  -21.9530   65.2290   27.6110 C   0  0  0  0  0  0  0  0  0  0  0  0
  -23.0650   65.4200   26.7980 C   0  0  0  0  0  0  0  0  0  0  0  0
  -23.0020   66.1950   25.6560 C   0  0  0  0  0  0  0  0  0  0  0  0
  -21.8200   66.8200   25.2710 C   0  0  0  0  0  0  0  0  0  0  0  0
  -20.6760   66.6490   26.0710 C   0  0  0  0  0  0  0  0  0  0  0  0
  -19.0700   67.5360   25.5180 Br  0  0  0  0  0  0  0  0  0  0  0  0
  -24.3220   66.1970   25.0240 C   0  0  0  0  0  0  0  0  0  0  0  0
  -24.7630   66.8260   23.8630 C   0  0  0  0  0  0  0  0  0  0  0  0
  -26.1040   66.6550   23.4810 C   0  0  0  0  0  0  0  0  0  0  0  0
  -26.9890   65.8620   24.2580 C   0  0  0  0  0  0  0  0  0  0  0  0
  -26.5080   65.2370   25.4330 C   0  0  0  0  0  0  0  0  0  0  0  0
  -25.1750   65.4220   25.7890 C   0  0  0  0  0  0  0  0  0  0  0  0
  -24.4250   64.9050   26.9280 C   0  0  0  0  0  0  0  0  0  0  0  0
  -24.8630   64.1590   27.8440 O   0  0  0  0  0  0  0  0  0  0  0  0
  -19.5640   65.6460   28.0780 N   0  0  0  0  0  0  0  0  0  0  0  0
  -19.7290   66.0360   29.0360 H   0  0  0  0  0  0  0  0  0  0  0  0
  -18.7590   66.1780   27.6800 H   0  0  0  0  0  0  0  0  0  0  0  0
  -19.2850   64.2350   28.2210 C   0  0  0  0  0  0  0  0  0  0  0  0
  -19.4580   63.6760   29.3850 N   0  0  0  0  0  0  0  0  0  0  0  0
  -19.2000   62.3430   29.6070 O   0  0  0  0  0  0  0  0  0  0  0  0
  -19.9150   61.7470   30.0040 H   0  0  0  0  0  0  0  0  0  0  0  0
  -18.7410   63.4190   27.0660 C   0  0  0  0  0  0  0  0  0  0  0  0
  -18.3360   64.2670   26.0520 F   0  0  0  0  0  0  0  0  0  0  0  0
  -19.6890   62.5530   26.5540 F   0  0  0  0  0  0  0  0  0  0  0  0
  -17.6550   62.6810   27.4980 F   0  0  0  0  0  0  0  0  0  0  0  0
  -28.3600   65.6980   23.8530 N   0  0  0  0  0  0  0  0  0  0  0  0
  -29.0120   64.6920   24.2040 O   0  0  0  0  0  0  0  0  0  0  0  0
  -28.9760   66.6460   23.0700 O   0  0  0  0  0  0  0  0  0  0  0  0
  1  2  1  0  0  0  0
  1 16  1  0  0  0  0
  3 14  1  0  0  0  0
  3  2  2  0  0  0  0
  4  3  1  0  0  0  0
  5  4  2  0  0  0  0
  5  6  1  0  0  0  0
  6  1  2  0  0  0  0
  7  6  1  0  0  0  0
  8  4  1  0  0  0  0
  8 13  2  0  0  0  0
  9  8  1  0  0  0  0
 10  9  2  0  0  0  0
 10 11  1  0  0  0  0
 11 12  2  0  0  0  0
 12 13  1  0  0  0  0
 13 14  1  0  0  0  0
 14 15  2  0  0  0  0
 16 19  1  0  0  0  0
 16 17  1  0  0  0  0
 18 16  1  0  0  0  0
 19 20  2  0  0  0  0
 20 21  1  0  0  0  0
 21 22  1  0  0  0  0
 23 26  1  0  0  0  0
 23 19  1  0  0  0  0
 24 23  1  0  0  0  0
 25 23  1  0  0  0  0
 27 28  2  0  0  0  0
 27 11  1  0  0  0  0
 29 27  2  0  0  0  0
M  END
>  <REMARK>
 VINA RESULT:      -8.2      4.773      8.165
  5 active torsions:
  status: ('A' for Active; 'I' for Inactive)
    1  A    between atoms: O1_2  and  N1_3 
    2  A    between atoms: C1_4  and  C2_5 
    3  A    between atoms: C1_4  and  N2_9 
    4  A    between atoms: N2_9  and  C3_12 
    5  A    between atoms: C12_22  and  N3_23 

>  <TORSDO>
F 5

$$$$
../pdbqt/decoy.vina_out.50.pdbqt
 OpenBabel06052021513D

 29 31  0  0  0  0  0  0  0  0999 V2000
  -25.8580   63.7040   26.9980 C   0  0  0  0  0  0  0  0  0  0  0  0
  -24.5140   63.3910   27.3100 C   0  0  0  0  0  0  0  0  0  0  0  0
  -23.5020   64.1940   26.7930 C   0  0  0  0  0  0  0  0  0  0  0  0
  -23.7810   65.2810   25.9880 C   0  0  0  0  0  0  0  0  0  0  0  0
  -25.0900   65.6190   25.6570 C   0  0  0  0  0  0  0  0  0  0  0  0
  -26.1380   64.8290   26.1620 C   0  0  0  0  0  0  0  0  0  0  0  0
  -27.9260   65.3150   25.6750 Br  0  0  0  0  0  0  0  0  0  0  0  0
  -22.5170   65.9160   25.6120 C   0  0  0  0  0  0  0  0  0  0  0  0
  -22.2720   67.0340   24.8190 C   0  0  0  0  0  0  0  0  0  0  0  0
  -20.9390   67.4310   24.6220 C   0  0  0  0  0  0  0  0  0  0  0  0
  -19.8680   66.7120   25.2140 C   0  0  0  0  0  0  0  0  0  0  0  0
  -20.1520   65.5800   26.0150 C   0  0  0  0  0  0  0  0  0  0  0  0
  -21.4820   65.2080   26.1950 C   0  0  0  0  0  0  0  0  0  0  0  0
  -22.0540   64.1030   26.9560 C   0  0  0  0  0  0  0  0  0  0  0  0
  -21.4240   63.2410   27.6240 O   0  0  0  0  0  0  0  0  0  0  0  0
  -26.9210   62.8890   27.5390 N   0  0  0  0  0  0  0  0  0  0  0  0
  -26.6900   61.8740   27.4250 H   0  0  0  0  0  0  0  0  0  0  0  0
  -27.7980   63.0530   26.9970 H   0  0  0  0  0  0  0  0  0  0  0  0
  -27.0820   63.1450   28.9520 C   0  0  0  0  0  0  0  0  0  0  0  0
  -27.9240   64.0640   29.3310 N   0  0  0  0  0  0  0  0  0  0  0  0
  -28.1230   64.3800   30.6570 O   0  0  0  0  0  0  0  0  0  0  0  0
  -28.2590   63.6440   31.3380 H   0  0  0  0  0  0  0  0  0  0  0  0
  -26.2500   62.4130   29.9850 C   0  0  0  0  0  0  0  0  0  0  0  0
  -27.0780   61.8990   30.9660 F   0  0  0  0  0  0  0  0  0  0  0  0
  -25.3270   63.2460   30.5910 F   0  0  0  0  0  0  0  0  0  0  0  0
  -25.5730   61.3730   29.3750 F   0  0  0  0  0  0  0  0  0  0  0  0
  -18.5080   67.1330   25.0010 N   0  0  0  0  0  0  0  0  0  0  0  0
  -18.0060   67.1110   23.8580 O   0  0  0  0  0  0  0  0  0  0  0  0
  -17.7370   67.5660   26.0550 O   0  0  0  0  0  0  0  0  0  0  0  0
  1  2  1  0  0  0  0
  1 16  1  0  0  0  0
  3 14  1  0  0  0  0
  3  2  2  0  0  0  0
  4  3  1  0  0  0  0
  5  4  2  0  0  0  0
  5  6  1  0  0  0  0
  6  1  2  0  0  0  0
  7  6  1  0  0  0  0
  8  4  1  0  0  0  0
  8 13  2  0  0  0  0
  9  8  1  0  0  0  0
 10  9  2  0  0  0  0
 10 11  1  0  0  0  0
 11 12  2  0  0  0  0
 12 13  1  0  0  0  0
 13 14  1  0  0  0  0
 14 15  2  0  0  0  0
 16 19  1  0  0  0  0
 17 16  1  0  0  0  0
 18 16  1  0  0  0  0
 19 20  2  0  0  0  0
 19 23  1  0  0  0  0
 20 21  1  0  0  0  0
 21 22  1  0  0  0  0
 23 25  1  0  0  0  0
 23 24  1  0  0  0  0
 26 23  1  0  0  0  0
 27 11  1  0  0  0  0
 27 29  2  0  0  0  0
 28 27  2  0  0  0  0
M  END
>  <REMARK>
 VINA RESULT:      -8.1      3.729      4.455
  5 active torsions:
  status: ('A' for Active; 'I' for Inactive)
    1  A    between atoms: O1_2  and  N1_3 
    2  A    between atoms: C1_4  and  C2_5 
    3  A    between atoms: C1_4  and  N2_9 
    4  A    between atoms: N2_9  and  C3_12 
    5  A    between atoms: C12_22  and  N3_23 

>  <TORSDO>
F 5

$$$$
../pdbqt/decoy.vina_out.50.pdbqt
 OpenBabel06052021513D

 29 31  0  0  0  0  0  0  0  0999 V2000
  -20.2030   64.4390   24.5350 C   0  0  0  0  0  0  0  0  0  0  0  0
  -19.0660   65.2630   24.7130 C   0  0  0  0  0  0  0  0  0  0  0  0
  -18.0950   65.2880   23.7180 C   0  0  0  0  0  0  0  0  0  0  0  0
  -18.2160   64.5300   22.5700 C   0  0  0  0  0  0  0  0  0  0  0  0
  -19.3170   63.7060   22.3590 C   0  0  0  0  0  0  0  0  0  0  0  0
  -20.3190   63.6570   23.3460 C   0  0  0  0  0  0  0  0  0  0  0  0
  -21.8140   62.5010   23.0300 Br  0  0  0  0  0  0  0  0  0  0  0  0
  -17.0450   64.7760   21.7270 C   0  0  0  0  0  0  0  0  0  0  0  0
  -16.7060   64.2530   20.4820 C   0  0  0  0  0  0  0  0  0  0  0  0
  -15.5020   64.6700   19.8900 C   0  0  0  0  0  0  0  0  0  0  0  0
  -14.6510   65.5990   20.5420 C   0  0  0  0  0  0  0  0  0  0  0  0
  -15.0250   66.1110   21.8080 C   0  0  0  0  0  0  0  0  0  0  0  0
  -16.2240   65.6820   22.3720 C   0  0  0  0  0  0  0  0  0  0  0  0
  -16.8450   66.0400   23.6430 C   0  0  0  0  0  0  0  0  0  0  0  0
  -16.3940   66.8390   24.5050 O   0  0  0  0  0  0  0  0  0  0  0  0
  -21.2280   64.4130   25.5530 N   0  0  0  0  0  0  0  0  0  0  0  0
  -20.8390   64.7520   26.4640 H   0  0  0  0  0  0  0  0  0  0  0  0
  -21.5370   63.4300   25.7130 H   0  0  0  0  0  0  0  0  0  0  0  0
  -22.3200   65.2890   25.1900 C   0  0  0  0  0  0  0  0  0  0  0  0
  -22.0500   66.5070   24.8170 N   0  0  0  0  0  0  0  0  0  0  0  0
  -23.0330   67.4070   24.4720 O   0  0  0  0  0  0  0  0  0  0  0  0
  -23.4030   68.0420   25.1670 H   0  0  0  0  0  0  0  0  0  0  0  0
  -23.7610   64.8350   25.2960 C   0  0  0  0  0  0  0  0  0  0  0  0
  -23.8010   63.5140   25.7050 F   0  0  0  0  0  0  0  0  0  0  0  0
  -24.4250   64.9340   24.0880 F   0  0  0  0  0  0  0  0  0  0  0  0
  -24.4210   65.6160   26.2270 F   0  0  0  0  0  0  0  0  0  0  0  0
  -13.4210   66.0150   19.9220 N   0  0  0  0  0  0  0  0  0  0  0  0
  -12.9350   67.1400   20.1620 O   0  0  0  0  0  0  0  0  0  0  0  0
  -12.7590   65.1790   19.0530 O   0  0  0  0  0  0  0  0  0  0  0  0
  1  2  1  0  0  0  0
  1 16  1  0  0  0  0
  3  2  2  0  0  0  0
  4  3  1  0  0  0  0
  5  4  2  0  0  0  0
  5  6  1  0  0  0  0
  6  1  2  0  0  0  0
  7  6  1  0  0  0  0
  8 13  2  0  0  0  0
  8  4  1  0  0  0  0
  9  8  1  0  0  0  0
 10  9  2  0  0  0  0
 10 11  1  0  0  0  0
 11 12  2  0  0  0  0
 12 13  1  0  0  0  0
 13 14  1  0  0  0  0
 14  3  1  0  0  0  0
 14 15  2  0  0  0  0
 16 18  1  0  0  0  0
 16 17  1  0  0  0  0
 19 23  1  0  0  0  0
 19 16  1  0  0  0  0
 20 19  2  0  0  0  0
 21 20  1  0  0  0  0
 21 22  1  0  0  0  0
 23 24  1  0  0  0  0
 23 26  1  0  0  0  0
 25 23  1  0  0  0  0
 27 28  2  0  0  0  0
 27 11  1  0  0  0  0
 29 27  2  0  0  0  0
M  END
>  <REMARK>
 VINA RESULT:      -7.7      4.813      6.851
  5 active torsions:
  status: ('A' for Active; 'I' for Inactive)
    1  A    between atoms: O1_2  and  N1_3 
    2  A    between atoms: C1_4  and  C2_5 
    3  A    between atoms: C1_4  and  N2_9 
    4  A    between atoms: N2_9  and  C3_12 
    5  A    between atoms: C12_22  and  N3_23 

>  <TORSDO>
F 5

$$$$
