../pdbqt/decoy.vina_out.27.pdbqt
 OpenBabel06052021513D

 14 15  0  0  0  0  0  0  0  0999 V2000
  -23.1020   66.1650   25.9180 O   0  0  0  0  0  0  0  0  0  0  0  0
  -23.2760   66.6320   24.7590 C   0  0  0  0  0  0  0  0  0  0  0  0
  -22.1550   67.1280   24.0040 N   0  0  0  0  0  0  0  0  0  0  0  0
  -22.3130   67.5120   23.0470 H   0  0  0  0  0  0  0  0  0  0  0  0
  -24.6500   66.6550   24.2120 C   0  0  0  0  0  0  0  0  0  0  0  0
  -25.7450   65.9960   24.7840 C   0  0  0  0  0  0  0  0  0  0  0  0
  -27.0200   66.3590   23.7730 S   0  0  0  0  0  0  0  0  0  0  0  0
  -26.2070   67.2990   22.6790 N   0  0  0  0  0  0  0  0  0  0  0  0
  -24.9370   67.3540   23.0700 N   0  0  0  0  0  0  0  0  0  0  0  0
  -20.8020   67.1310   24.4860 C   0  0  0  0  0  0  0  0  0  0  0  0
  -19.9880   66.0010   24.4140 C   0  0  0  0  0  0  0  0  0  0  0  0
  -18.5440   66.4930   25.0880 S   0  0  0  0  0  0  0  0  0  0  0  0
  -18.9590   68.0590   25.4420 N   0  0  0  0  0  0  0  0  0  0  0  0
  -20.2180   68.2340   25.0490 N   0  0  0  0  0  0  0  0  0  0  0  0
  2  1  2  0  0  0  0
  3 10  1  0  0  0  0
  3  2  1  0  0  0  0
  4  3  1  0  0  0  0
  5  2  1  0  0  0  0
  5  6  2  0  0  0  0
  7  6  1  0  0  0  0
  8  9  2  0  0  0  0
  8  7  1  0  0  0  0
  9  5  1  0  0  0  0
 10 14  1  0  0  0  0
 11 10  2  0  0  0  0
 11 12  1  0  0  0  0
 12 13  1  0  0  0  0
 14 13  2  0  0  0  0
M  END
>  <MODEL>
1

>  <REMARK>
 VINA RESULT:      -5.8      0.000      0.000
  2 active torsions:
  status: ('A' for Active; 'I' for Inactive)
       I    between atoms: C1_2  and  N1_3 
    1  A    between atoms: C1_2  and  C4_9 
    2  A    between atoms: N1_3  and  C2_4 

>  <TORSDO>
F 2

$$$$
../pdbqt/decoy.vina_out.27.pdbqt
 OpenBabel06052021513D

 14 15  0  0  0  0  0  0  0  0999 V2000
  -23.4810   64.8130   24.5090 O   0  0  0  0  0  0  0  0  0  0  0  0
  -23.1860   66.0330   24.6250 C   0  0  0  0  0  0  0  0  0  0  0  0
  -24.1360   67.0450   24.2390 N   0  0  0  0  0  0  0  0  0  0  0  0
  -23.8800   68.0510   24.3390 H   0  0  0  0  0  0  0  0  0  0  0  0
  -21.8530   66.3850   25.1580 C   0  0  0  0  0  0  0  0  0  0  0  0
  -20.6740   66.4040   24.4040 C   0  0  0  0  0  0  0  0  0  0  0  0
  -19.4960   66.8640   25.4900 S   0  0  0  0  0  0  0  0  0  0  0  0
  -20.4490   67.0240   26.8340 N   0  0  0  0  0  0  0  0  0  0  0  0
  -21.6940   66.7280   26.4750 N   0  0  0  0  0  0  0  0  0  0  0  0
  -25.4420   66.7600   23.7140 C   0  0  0  0  0  0  0  0  0  0  0  0
  -26.4000   66.0630   24.4510 C   0  0  0  0  0  0  0  0  0  0  0  0
  -27.7200   65.9840   23.4350 S   0  0  0  0  0  0  0  0  0  0  0  0
  -27.0820   66.7980   22.1390 N   0  0  0  0  0  0  0  0  0  0  0  0
  -25.8400   67.1460   22.4620 N   0  0  0  0  0  0  0  0  0  0  0  0
  1  2  2  0  0  0  0
  2  5  1  0  0  0  0
  3  4  1  0  0  0  0
  3  2  1  0  0  0  0
  5  9  1  0  0  0  0
  6  5  2  0  0  0  0
  6  7  1  0  0  0  0
  7  8  1  0  0  0  0
  9  8  2  0  0  0  0
 10  3  1  0  0  0  0
 10 11  2  0  0  0  0
 12 11  1  0  0  0  0
 13 14  2  0  0  0  0
 13 12  1  0  0  0  0
 14 10  1  0  0  0  0
M  END
>  <REMARK>
 VINA RESULT:      -5.3      1.392      5.847
  2 active torsions:
  status: ('A' for Active; 'I' for Inactive)
       I    between atoms: C1_2  and  N1_3 
    1  A    between atoms: C1_2  and  C4_9 
    2  A    between atoms: N1_3  and  C2_4 

>  <TORSDO>
F 2

$$$$
../pdbqt/decoy.vina_out.27.pdbqt
 OpenBabel06052021513D

 14 15  0  0  0  0  0  0  0  0999 V2000
  -24.7770   67.2030   23.0140 O   0  0  0  0  0  0  0  0  0  0  0  0
  -25.2400   66.4640   23.9250 C   0  0  0  0  0  0  0  0  0  0  0  0
  -24.3510   65.8530   24.8800 N   0  0  0  0  0  0  0  0  0  0  0  0
  -24.7460   65.2430   25.6270 H   0  0  0  0  0  0  0  0  0  0  0  0
  -26.7010   66.2460   23.9760 C   0  0  0  0  0  0  0  0  0  0  0  0
  -27.3630   65.5190   24.9730 C   0  0  0  0  0  0  0  0  0  0  0  0
  -28.9710   65.5960   24.5440 S   0  0  0  0  0  0  0  0  0  0  0  0
  -28.8160   66.5050   23.1680 N   0  0  0  0  0  0  0  0  0  0  0  0
  -27.5220   66.7680   23.0110 N   0  0  0  0  0  0  0  0  0  0  0  0
  -22.9260   66.0290   24.8740 C   0  0  0  0  0  0  0  0  0  0  0  0
  -22.3280   67.2380   25.2290 C   0  0  0  0  0  0  0  0  0  0  0  0
  -20.6940   66.9500   25.0670 S   0  0  0  0  0  0  0  0  0  0  0  0
  -20.7710   65.3690   24.5730 N   0  0  0  0  0  0  0  0  0  0  0  0
  -22.0560   65.0320   24.5220 N   0  0  0  0  0  0  0  0  0  0  0  0
  1  2  2  0  0  0  0
  2  5  1  0  0  0  0
  2  3  1  0  0  0  0
  3  4  1  0  0  0  0
  5  6  2  0  0  0  0
  7  6  1  0  0  0  0
  8  7  1  0  0  0  0
  9  8  2  0  0  0  0
  9  5  1  0  0  0  0
 10  3  1  0  0  0  0
 10 11  2  0  0  0  0
 12 11  1  0  0  0  0
 13 12  1  0  0  0  0
 14 13  2  0  0  0  0
 14 10  1  0  0  0  0
M  END
>  <REMARK>
 VINA RESULT:      -5.2      2.279      2.699
  2 active torsions:
  status: ('A' for Active; 'I' for Inactive)
       I    between atoms: C1_2  and  N1_3 
    1  A    between atoms: C1_2  and  C4_9 
    2  A    between atoms: N1_3  and  C2_4 

>  <TORSDO>
F 2

$$$$
../pdbqt/decoy.vina_out.27.pdbqt
 OpenBabel06052021513D

 14 15  0  0  0  0  0  0  0  0999 V2000
  -23.1340   66.7300   25.1670 O   0  0  0  0  0  0  0  0  0  0  0  0
  -23.8570   65.8690   24.5960 C   0  0  0  0  0  0  0  0  0  0  0  0
  -23.4050   64.5050   24.4870 N   0  0  0  0  0  0  0  0  0  0  0  0
  -24.0120   63.8030   24.0110 H   0  0  0  0  0  0  0  0  0  0  0  0
  -25.1610   66.2990   24.0490 C   0  0  0  0  0  0  0  0  0  0  0  0
  -26.4050   65.9420   24.5830 C   0  0  0  0  0  0  0  0  0  0  0  0
  -27.5130   66.6950   23.5910 S   0  0  0  0  0  0  0  0  0  0  0  0
  -26.4540   67.4270   22.5500 N   0  0  0  0  0  0  0  0  0  0  0  0
  -25.2250   67.1070   22.9450 N   0  0  0  0  0  0  0  0  0  0  0  0
  -22.1490   64.0340   24.9980 C   0  0  0  0  0  0  0  0  0  0  0  0
  -22.0320   63.4650   26.2660 C   0  0  0  0  0  0  0  0  0  0  0  0
  -20.4130   63.0870   26.3970 S   0  0  0  0  0  0  0  0  0  0  0  0
  -19.9140   63.6260   24.9110 N   0  0  0  0  0  0  0  0  0  0  0  0
  -20.9830   64.1090   24.2840 N   0  0  0  0  0  0  0  0  0  0  0  0
  2  1  2  0  0  0  0
  3  2  1  0  0  0  0
  3 10  1  0  0  0  0
  4  3  1  0  0  0  0
  5  6  2  0  0  0  0
  5  2  1  0  0  0  0
  7  6  1  0  0  0  0
  8  9  2  0  0  0  0
  8  7  1  0  0  0  0
  9  5  1  0  0  0  0
 10 11  2  0  0  0  0
 11 12  1  0  0  0  0
 13 12  1  0  0  0  0
 14 13  2  0  0  0  0
 14 10  1  0  0  0  0
M  END
>  <REMARK>
 VINA RESULT:      -5.2      2.597      2.683
  2 active torsions:
  status: ('A' for Active; 'I' for Inactive)
       I    between atoms: C1_2  and  N1_3 
    1  A    between atoms: C1_2  and  C4_9 
    2  A    between atoms: N1_3  and  C2_4 

>  <TORSDO>
F 2

$$$$
../pdbqt/decoy.vina_out.27.pdbqt
 OpenBabel06052021513D

 14 15  0  0  0  0  0  0  0  0999 V2000
  -18.8390   65.6100   22.2120 O   0  0  0  0  0  0  0  0  0  0  0  0
  -18.2000   64.5720   21.8880 C   0  0  0  0  0  0  0  0  0  0  0  0
  -18.7310   63.2700   22.2020 N   0  0  0  0  0  0  0  0  0  0  0  0
  -18.1920   62.4200   21.9290 H   0  0  0  0  0  0  0  0  0  0  0  0
  -16.9070   64.7350   21.1900 C   0  0  0  0  0  0  0  0  0  0  0  0
  -15.8080   65.4340   21.7030 C   0  0  0  0  0  0  0  0  0  0  0  0
  -14.6410   65.2970   20.5210 S   0  0  0  0  0  0  0  0  0  0  0  0
  -15.5020   64.3980   19.4290 N   0  0  0  0  0  0  0  0  0  0  0  0
  -16.7050   64.1840   19.9520 N   0  0  0  0  0  0  0  0  0  0  0  0
  -19.9790   63.0550   22.8790 C   0  0  0  0  0  0  0  0  0  0  0  0
  -20.1190   63.2510   24.2520 C   0  0  0  0  0  0  0  0  0  0  0  0
  -21.7160   62.8800   24.5580 S   0  0  0  0  0  0  0  0  0  0  0  0
  -22.1790   62.4960   23.0130 N   0  0  0  0  0  0  0  0  0  0  0  0
  -21.1130   62.6450   22.2310 N   0  0  0  0  0  0  0  0  0  0  0  0
  2  3  1  0  0  0  0
  2  1  2  0  0  0  0
  3 10  1  0  0  0  0
  4  3  1  0  0  0  0
  5  6  2  0  0  0  0
  5  2  1  0  0  0  0
  7  6  1  0  0  0  0
  8  9  2  0  0  0  0
  8  7  1  0  0  0  0
  9  5  1  0  0  0  0
 10 11  2  0  0  0  0
 11 12  1  0  0  0  0
 13 12  1  0  0  0  0
 14 10  1  0  0  0  0
 14 13  2  0  0  0  0
M  END
>  <REMARK>
 VINA RESULT:      -5.0      5.366      7.873
  2 active torsions:
  status: ('A' for Active; 'I' for Inactive)
       I    between atoms: C1_2  and  N1_3 
    1  A    between atoms: C1_2  and  C4_9 
    2  A    between atoms: N1_3  and  C2_4 

>  <TORSDO>
F 2

$$$$
../pdbqt/decoy.vina_out.27.pdbqt
 OpenBabel06052021513D

 14 15  0  0  0  0  0  0  0  0999 V2000
  -15.8880   62.8180   23.8270 O   0  0  0  0  0  0  0  0  0  0  0  0
  -16.4690   63.1280   22.7520 C   0  0  0  0  0  0  0  0  0  0  0  0
  -17.9050   63.0570   22.6600 N   0  0  0  0  0  0  0  0  0  0  0  0
  -18.3720   63.3150   21.7640 H   0  0  0  0  0  0  0  0  0  0  0  0
  -15.6390   63.5570   21.6060 C   0  0  0  0  0  0  0  0  0  0  0  0
  -16.0880   64.3700   20.5580 C   0  0  0  0  0  0  0  0  0  0  0  0
  -14.7610   64.5340   19.5630 S   0  0  0  0  0  0  0  0  0  0  0  0
  -13.6890   63.6160   20.4300 N   0  0  0  0  0  0  0  0  0  0  0  0
  -14.3300   63.1660   21.5040 N   0  0  0  0  0  0  0  0  0  0  0  0
  -18.7570   62.6460   23.7400 C   0  0  0  0  0  0  0  0  0  0  0  0
  -19.1980   63.5400   24.7160 C   0  0  0  0  0  0  0  0  0  0  0  0
  -20.1390   62.6070   25.7290 S   0  0  0  0  0  0  0  0  0  0  0  0
  -19.9770   61.1550   24.9470 N   0  0  0  0  0  0  0  0  0  0  0  0
  -19.1950   61.3580   23.8910 N   0  0  0  0  0  0  0  0  0  0  0  0
  2  1  2  0  0  0  0
  3  2  1  0  0  0  0
  3 10  1  0  0  0  0
  4  3  1  0  0  0  0
  5  2  1  0  0  0  0
  6  5  2  0  0  0  0
  7  8  1  0  0  0  0
  7  6  1  0  0  0  0
  8  9  2  0  0  0  0
  9  5  1  0  0  0  0
 10 14  1  0  0  0  0
 10 11  2  0  0  0  0
 11 12  1  0  0  0  0
 13 12  1  0  0  0  0
 14 13  2  0  0  0  0
M  END
>  <REMARK>
 VINA RESULT:      -4.9      6.471      8.795
  2 active torsions:
  status: ('A' for Active; 'I' for Inactive)
       I    between atoms: C1_2  and  N1_3 
    1  A    between atoms: C1_2  and  C4_9 
    2  A    between atoms: N1_3  and  C2_4 

>  <TORSDO>
F 2

$$$$
../pdbqt/decoy.vina_out.27.pdbqt
 OpenBabel06052021513D

 14 15  0  0  0  0  0  0  0  0999 V2000
  -18.0110   62.9310   23.2560 O   0  0  0  0  0  0  0  0  0  0  0  0
  -18.9240   63.6120   22.7140 C   0  0  0  0  0  0  0  0  0  0  0  0
  -18.6080   64.5190   21.6400 N   0  0  0  0  0  0  0  0  0  0  0  0
  -19.3720   65.0770   21.2020 H   0  0  0  0  0  0  0  0  0  0  0  0
  -20.3070   63.4530   23.2120 C   0  0  0  0  0  0  0  0  0  0  0  0
  -20.8440   64.1450   24.3040 C   0  0  0  0  0  0  0  0  0  0  0  0
  -22.4110   63.5890   24.4170 S   0  0  0  0  0  0  0  0  0  0  0  0
  -22.3890   62.5310   23.1430 N   0  0  0  0  0  0  0  0  0  0  0  0
  -21.1740   62.5840   22.6050 N   0  0  0  0  0  0  0  0  0  0  0  0
  -17.2830   64.7130   21.1200 C   0  0  0  0  0  0  0  0  0  0  0  0
  -16.3470   65.5210   21.7630 C   0  0  0  0  0  0  0  0  0  0  0  0
  -14.9930   65.4310   20.7930 S   0  0  0  0  0  0  0  0  0  0  0  0
  -15.5930   64.4150   19.6290 N   0  0  0  0  0  0  0  0  0  0  0  0
  -16.8470   64.1250   19.9630 N   0  0  0  0  0  0  0  0  0  0  0  0
  2  5  1  0  0  0  0
  2  1  2  0  0  0  0
  3  2  1  0  0  0  0
  4  3  1  0  0  0  0
  5  6  2  0  0  0  0
  6  7  1  0  0  0  0
  8  7  1  0  0  0  0
  9  8  2  0  0  0  0
  9  5  1  0  0  0  0
 10  3  1  0  0  0  0
 10 11  2  0  0  0  0
 12 11  1  0  0  0  0
 13 14  2  0  0  0  0
 13 12  1  0  0  0  0
 14 10  1  0  0  0  0
M  END
>  <REMARK>
 VINA RESULT:      -4.9      5.119      5.930
  2 active torsions:
  status: ('A' for Active; 'I' for Inactive)
       I    between atoms: C1_2  and  N1_3 
    1  A    between atoms: C1_2  and  C4_9 
    2  A    between atoms: N1_3  and  C2_4 

>  <TORSDO>
F 2

$$$$
../pdbqt/decoy.vina_out.27.pdbqt
 OpenBabel06052021513D

 14 15  0  0  0  0  0  0  0  0999 V2000
  -17.4350   66.9730   22.6290 O   0  0  0  0  0  0  0  0  0  0  0  0
  -18.1940   65.9830   22.8140 C   0  0  0  0  0  0  0  0  0  0  0  0
  -17.8870   64.7140   22.2060 N   0  0  0  0  0  0  0  0  0  0  0  0
  -18.5230   63.9030   22.3660 H   0  0  0  0  0  0  0  0  0  0  0  0
  -19.3920   66.1670   23.6610 C   0  0  0  0  0  0  0  0  0  0  0  0
  -20.2460   65.1340   24.0670 C   0  0  0  0  0  0  0  0  0  0  0  0
  -21.4060   65.8950   24.9890 S   0  0  0  0  0  0  0  0  0  0  0  0
  -20.8390   67.4470   24.8680 N   0  0  0  0  0  0  0  0  0  0  0  0
  -19.7440   67.4100   24.1150 N   0  0  0  0  0  0  0  0  0  0  0  0
  -16.7390   64.4800   21.3740 C   0  0  0  0  0  0  0  0  0  0  0  0
  -15.4790   64.2150   21.9100 C   0  0  0  0  0  0  0  0  0  0  0  0
  -14.5000   64.0210   20.5740 S   0  0  0  0  0  0  0  0  0  0  0  0
  -15.6400   64.2660   19.3950 N   0  0  0  0  0  0  0  0  0  0  0  0
  -16.7980   64.5030   20.0060 N   0  0  0  0  0  0  0  0  0  0  0  0
  1  2  2  0  0  0  0
  2  5  1  0  0  0  0
  3  4  1  0  0  0  0
  3  2  1  0  0  0  0
  5  6  2  0  0  0  0
  5  9  1  0  0  0  0
  6  7  1  0  0  0  0
  8  7  1  0  0  0  0
  9  8  2  0  0  0  0
 10 11  2  0  0  0  0
 10  3  1  0  0  0  0
 12 11  1  0  0  0  0
 13 14  2  0  0  0  0
 13 12  1  0  0  0  0
 14 10  1  0  0  0  0
M  END
>  <REMARK>
 VINA RESULT:      -4.9      4.715      6.040
  2 active torsions:
  status: ('A' for Active; 'I' for Inactive)
       I    between atoms: C1_2  and  N1_3 
    1  A    between atoms: C1_2  and  C4_9 
    2  A    between atoms: N1_3  and  C2_4 

>  <TORSDO>
F 2

$$$$
../pdbqt/decoy.vina_out.27.pdbqt
 OpenBabel06052021513D

 14 15  0  0  0  0  0  0  0  0999 V2000
  -14.0080   66.0870   22.9370 O   0  0  0  0  0  0  0  0  0  0  0  0
  -14.6080   66.1790   21.8310 C   0  0  0  0  0  0  0  0  0  0  0  0
  -13.8560   66.3490   20.6140 N   0  0  0  0  0  0  0  0  0  0  0  0
  -14.3640   66.4240   19.7070 H   0  0  0  0  0  0  0  0  0  0  0  0
  -16.0850   66.1090   21.8270 C   0  0  0  0  0  0  0  0  0  0  0  0
  -16.8340   65.1450   21.1420 C   0  0  0  0  0  0  0  0  0  0  0  0
  -18.4180   65.5340   21.4810 S   0  0  0  0  0  0  0  0  0  0  0  0
  -18.1470   66.8550   22.4430 N   0  0  0  0  0  0  0  0  0  0  0  0
  -16.8310   67.0230   22.5230 N   0  0  0  0  0  0  0  0  0  0  0  0
  -12.4230   66.4240   20.5620 C   0  0  0  0  0  0  0  0  0  0  0  0
  -11.7210   67.5250   21.0540 C   0  0  0  0  0  0  0  0  0  0  0  0
  -10.1210   67.1500   20.7710 S   0  0  0  0  0  0  0  0  0  0  0  0
  -10.3380   65.6670   20.0620 N   0  0  0  0  0  0  0  0  0  0  0  0
  -11.6460   65.4310   20.0290 N   0  0  0  0  0  0  0  0  0  0  0  0
  2  1  2  0  0  0  0
  3  2  1  0  0  0  0
  4  3  1  0  0  0  0
  5  2  1  0  0  0  0
  5  9  1  0  0  0  0
  6  7  1  0  0  0  0
  6  5  2  0  0  0  0
  7  8  1  0  0  0  0
  8  9  2  0  0  0  0
 10  3  1  0  0  0  0
 10 11  2  0  0  0  0
 12 11  1  0  0  0  0
 13 12  1  0  0  0  0
 14 13  2  0  0  0  0
 14 10  1  0  0  0  0
M  END
>  <REMARK>
 VINA RESULT:      -4.8      7.364      9.257
  2 active torsions:
  status: ('A' for Active; 'I' for Inactive)
       I    between atoms: C1_2  and  N1_3 
    1  A    between atoms: C1_2  and  C4_9 
    2  A    between atoms: N1_3  and  C2_4 

>  <TORSDO>
F 2

$$$$
