../pdbqt/decoy.vina_out.55.pdbqt
 OpenBabel06052021513D

 16 16  0  0  1  0  0  0  0  0999 V2000
  -26.0410   65.0830   26.0400 C   0  0  0  0  0  0  0  0  0  0  0  0
  -25.2670   65.8870   24.9900 C   0  0  1  0  0  0  0  0  0  0  0  0
  -23.8330   65.3520   24.8100 C   0  0  0  0  0  0  0  0  0  0  0  0
  -22.8340   66.0960   25.6620 C   0  0  0  0  0  0  0  0  0  0  0  0
  -22.2100   67.2580   25.1740 C   0  0  0  0  0  0  0  0  0  0  0  0
  -21.2840   67.9460   25.9620 C   0  0  0  0  0  0  0  0  0  0  0  0
  -20.9690   67.4790   27.2410 C   0  0  0  0  0  0  0  0  0  0  0  0
  -21.5790   66.3220   27.7320 C   0  0  0  0  0  0  0  0  0  0  0  0
  -22.5070   65.6300   26.9470 C   0  0  0  0  0  0  0  0  0  0  0  0
  -25.9740   65.8100   23.7070 N   0  0  0  0  0  0  0  0  0  0  0  0
  -26.2380   66.9540   22.8820 C   0  0  0  0  0  0  0  0  0  0  0  0
  -26.9350   66.7940   21.6470 N   0  0  0  0  0  0  0  0  0  0  0  0
  -25.8600   68.1030   23.2370 O   0  0  0  0  0  0  0  0  0  0  0  0
  -27.1300   67.6210   21.0420 H   0  0  0  0  0  0  0  0  0  0  0  0
  -27.2550   65.8510   21.3360 H   0  0  0  0  0  0  0  0  0  0  0  0
  -26.2970   64.8730   23.3750 H   0  0  0  0  0  0  0  0  0  0  0  0
  2  1  1  1  0  0  0
  3  2  1  0  0  0  0
  3  4  1  0  0  0  0
  4  9  1  0  0  0  0
  5  4  2  0  0  0  0
  5  6  1  0  0  0  0
  6  7  2  0  0  0  0
  7  8  1  0  0  0  0
  9  8  2  0  0  0  0
 10  2  1  0  0  0  0
 11 13  2  0  0  0  0
 11 10  1  0  0  0  0
 12 11  1  0  0  0  0
 14 12  1  0  0  0  0
 15 12  1  0  0  0  0
 16 10  1  0  0  0  0
M  END
>  <MODEL>
1

>  <REMARK>
 VINA RESULT:      -6.4      0.000      0.000
  3 active torsions:
  status: ('A' for Active; 'I' for Inactive)
    1  A    between atoms: C2_2  and  C3_3 
    2  A    between atoms: C2_2  and  N1_10 
    3  A    between atoms: C3_3  and  C4_4 
       I    between atoms: N1_10  and  C10_11 
       I    between atoms: C10_11  and  N2_12 

>  <TORSDO>
F 3

$$$$
../pdbqt/decoy.vina_out.55.pdbqt
 OpenBabel06052021513D

 16 16  0  0  1  0  0  0  0  0999 V2000
  -23.7500   62.9650   26.9350 C   0  0  0  0  0  0  0  0  0  0  0  0
  -23.5380   63.8480   25.7010 C   0  0  1  0  0  0  0  0  0  0  0  0
  -23.8550   65.3260   25.9990 C   0  0  0  0  0  0  0  0  0  0  0  0
  -24.9980   65.8460   25.1620 C   0  0  0  0  0  0  0  0  0  0  0  0
  -24.7530   66.7400   24.1040 C   0  0  0  0  0  0  0  0  0  0  0  0
  -25.8110   67.2230   23.3290 C   0  0  0  0  0  0  0  0  0  0  0  0
  -27.1210   66.8230   23.6050 C   0  0  0  0  0  0  0  0  0  0  0  0
  -27.3750   65.9400   24.6580 C   0  0  0  0  0  0  0  0  0  0  0  0
  -26.3190   65.4540   25.4370 C   0  0  0  0  0  0  0  0  0  0  0  0
  -22.1440   63.7350   25.2600 N   0  0  0  0  0  0  0  0  0  0  0  0
  -21.7590   63.1770   23.9960 C   0  0  0  0  0  0  0  0  0  0  0  0
  -20.3780   63.1000   23.6430 N   0  0  0  0  0  0  0  0  0  0  0  0
  -22.6300   62.7520   23.1890 O   0  0  0  0  0  0  0  0  0  0  0  0
  -20.0910   62.6970   22.7240 H   0  0  0  0  0  0  0  0  0  0  0  0
  -19.6430   63.4470   24.2970 H   0  0  0  0  0  0  0  0  0  0  0  0
  -21.3930   64.0820   25.8980 H   0  0  0  0  0  0  0  0  0  0  0  0
  2  3  1  0  0  0  0
  2  1  1  1  0  0  0
  4  9  1  0  0  0  0
  4  3  1  0  0  0  0
  5  4  2  0  0  0  0
  6  7  2  0  0  0  0
  6  5  1  0  0  0  0
  7  8  1  0  0  0  0
  8  9  2  0  0  0  0
 10  2  1  0  0  0  0
 10 16  1  0  0  0  0
 11 10  1  0  0  0  0
 12 11  1  0  0  0  0
 12 15  1  0  0  0  0
 13 11  2  0  0  0  0
 14 12  1  0  0  0  0
M  END
>  <REMARK>
 VINA RESULT:      -6.3      3.478      5.028
  3 active torsions:
  status: ('A' for Active; 'I' for Inactive)
    1  A    between atoms: C2_2  and  C3_3 
    2  A    between atoms: C2_2  and  N1_10 
    3  A    between atoms: C3_3  and  C4_4 
       I    between atoms: N1_10  and  C10_11 
       I    between atoms: C10_11  and  N2_12 

>  <TORSDO>
F 3

$$$$
../pdbqt/decoy.vina_out.55.pdbqt
 OpenBabel06052021513D

 16 16  0  0  1  0  0  0  0  0999 V2000
  -25.5560   61.6970   28.5580 C   0  0  0  0  0  0  0  0  0  0  0  0
  -25.0200   62.7070   27.5380 C   0  0  1  0  0  0  0  0  0  0  0  0
  -25.6290   64.1060   27.7500 C   0  0  0  0  0  0  0  0  0  0  0  0
  -26.5840   64.4880   26.6450 C   0  0  0  0  0  0  0  0  0  0  0  0
  -26.1790   65.3760   25.6330 C   0  0  0  0  0  0  0  0  0  0  0  0
  -27.0630   65.7310   24.6100 C   0  0  0  0  0  0  0  0  0  0  0  0
  -28.3580   65.2070   24.5920 C   0  0  0  0  0  0  0  0  0  0  0  0
  -28.7710   64.3290   25.5970 C   0  0  0  0  0  0  0  0  0  0  0  0
  -27.8900   63.9700   26.6220 C   0  0  0  0  0  0  0  0  0  0  0  0
  -23.5610   62.7930   27.6650 N   0  0  0  0  0  0  0  0  0  0  0  0
  -22.6920   63.1350   26.5760 C   0  0  0  0  0  0  0  0  0  0  0  0
  -21.2820   63.1950   26.7830 N   0  0  0  0  0  0  0  0  0  0  0  0
  -23.1630   63.3840   25.4340 O   0  0  0  0  0  0  0  0  0  0  0  0
  -20.6430   63.4440   25.9960 H   0  0  0  0  0  0  0  0  0  0  0  0
  -20.8740   62.9920   27.7220 H   0  0  0  0  0  0  0  0  0  0  0  0
  -23.1330   62.6000   28.5990 H   0  0  0  0  0  0  0  0  0  0  0  0
  2 10  1  0  0  0  0
  2  3  1  0  0  0  0
  2  1  1  1  0  0  0
  4  3  1  0  0  0  0
  5  4  2  0  0  0  0
  6  5  1  0  0  0  0
  7  6  2  0  0  0  0
  7  8  1  0  0  0  0
  8  9  2  0  0  0  0
  9  4  1  0  0  0  0
 10 16  1  0  0  0  0
 11 12  1  0  0  0  0
 11 10  1  0  0  0  0
 12 15  1  0  0  0  0
 13 11  2  0  0  0  0
 14 12  1  0  0  0  0
M  END
>  <REMARK>
 VINA RESULT:      -6.3      4.274      5.957
  3 active torsions:
  status: ('A' for Active; 'I' for Inactive)
    1  A    between atoms: C2_2  and  C3_3 
    2  A    between atoms: C2_2  and  N1_10 
    3  A    between atoms: C3_3  and  C4_4 
       I    between atoms: N1_10  and  C10_11 
       I    between atoms: C10_11  and  N2_12 

>  <TORSDO>
F 3

$$$$
../pdbqt/decoy.vina_out.55.pdbqt
 OpenBabel06052021513D

 16 16  0  0  1  0  0  0  0  0999 V2000
  -27.4250   62.5720   28.2670 C   0  0  0  0  0  0  0  0  0  0  0  0
  -27.9800   63.9240   27.8040 C   0  0  1  0  0  0  0  0  0  0  0  0
  -27.9260   64.0650   26.2710 C   0  0  0  0  0  0  0  0  0  0  0  0
  -26.7060   64.8240   25.8080 C   0  0  0  0  0  0  0  0  0  0  0  0
  -25.4690   64.6390   26.4510 C   0  0  0  0  0  0  0  0  0  0  0  0
  -24.3400   65.3430   26.0240 C   0  0  0  0  0  0  0  0  0  0  0  0
  -24.4360   66.2390   24.9560 C   0  0  0  0  0  0  0  0  0  0  0  0
  -25.6620   66.4340   24.3150 C   0  0  0  0  0  0  0  0  0  0  0  0
  -26.7950   65.7320   24.7390 C   0  0  0  0  0  0  0  0  0  0  0  0
  -29.3710   64.0520   28.2500 N   0  0  0  0  0  0  0  0  0  0  0  0
  -29.7400   64.4330   29.5840 C   0  0  0  0  0  0  0  0  0  0  0  0
  -31.1180   64.5330   29.9390 N   0  0  0  0  0  0  0  0  0  0  0  0
  -28.8560   64.6820   30.4480 O   0  0  0  0  0  0  0  0  0  0  0  0
  -31.3940   64.8100   30.9070 H   0  0  0  0  0  0  0  0  0  0  0  0
  -31.8640   64.3310   29.2370 H   0  0  0  0  0  0  0  0  0  0  0  0
  -30.1320   63.8610   27.5610 H   0  0  0  0  0  0  0  0  0  0  0  0
  2 10  1  0  0  0  0
  2  1  1  6  0  0  0
  3  2  1  0  0  0  0
  4  3  1  0  0  0  0
  4  5  2  0  0  0  0
  6  5  1  0  0  0  0
  7  6  2  0  0  0  0
  8  9  2  0  0  0  0
  8  7  1  0  0  0  0
  9  4  1  0  0  0  0
 10 11  1  0  0  0  0
 11 12  1  0  0  0  0
 11 13  2  0  0  0  0
 12 14  1  0  0  0  0
 15 12  1  0  0  0  0
 16 10  1  0  0  0  0
M  END
>  <REMARK>
 VINA RESULT:      -6.2      4.249      5.804
  3 active torsions:
  status: ('A' for Active; 'I' for Inactive)
    1  A    between atoms: C2_2  and  C3_3 
    2  A    between atoms: C2_2  and  N1_10 
    3  A    between atoms: C3_3  and  C4_4 
       I    between atoms: N1_10  and  C10_11 
       I    between atoms: C10_11  and  N2_12 

>  <TORSDO>
F 3

$$$$
../pdbqt/decoy.vina_out.55.pdbqt
 OpenBabel06052021513D

 16 16  0  0  1  0  0  0  0  0999 V2000
  -25.2560   61.3930   28.6280 C   0  0  0  0  0  0  0  0  0  0  0  0
  -26.0610   62.6190   29.0700 C   0  0  1  0  0  0  0  0  0  0  0  0
  -27.3720   62.7550   28.2740 C   0  0  0  0  0  0  0  0  0  0  0  0
  -27.2550   63.7450   27.1410 C   0  0  0  0  0  0  0  0  0  0  0  0
  -26.0290   64.3820   26.8810 C   0  0  0  0  0  0  0  0  0  0  0  0
  -25.9190   65.3000   25.8320 C   0  0  0  0  0  0  0  0  0  0  0  0
  -27.0320   65.5930   25.0390 C   0  0  0  0  0  0  0  0  0  0  0  0
  -28.2560   64.9690   25.2950 C   0  0  0  0  0  0  0  0  0  0  0  0
  -28.3700   64.0500   26.3430 C   0  0  0  0  0  0  0  0  0  0  0  0
  -26.3740   62.5000   30.4980 N   0  0  0  0  0  0  0  0  0  0  0  0
  -26.4200   63.6200   31.3920 C   0  0  0  0  0  0  0  0  0  0  0  0
  -26.7310   63.4190   32.7700 N   0  0  0  0  0  0  0  0  0  0  0  0
  -26.1870   64.7860   30.9730 O   0  0  0  0  0  0  0  0  0  0  0  0
  -26.7670   64.2290   33.4270 H   0  0  0  0  0  0  0  0  0  0  0  0
  -26.9270   62.4610   33.1360 H   0  0  0  0  0  0  0  0  0  0  0  0
  -26.5800   61.5500   30.8830 H   0  0  0  0  0  0  0  0  0  0  0  0
  2  1  1  6  0  0  0
  2 10  1  0  0  0  0
  3  2  1  0  0  0  0
  4  3  1  0  0  0  0
  5  4  1  0  0  0  0
  6  5  2  0  0  0  0
  7  8  2  0  0  0  0
  7  6  1  0  0  0  0
  8  9  1  0  0  0  0
  9  4  2  0  0  0  0
 10 16  1  0  0  0  0
 10 11  1  0  0  0  0
 11 12  1  0  0  0  0
 12 15  1  0  0  0  0
 12 14  1  0  0  0  0
 13 11  2  0  0  0  0
M  END
>  <REMARK>
 VINA RESULT:      -6.2      5.290      7.035
  3 active torsions:
  status: ('A' for Active; 'I' for Inactive)
    1  A    between atoms: C2_2  and  C3_3 
    2  A    between atoms: C2_2  and  N1_10 
    3  A    between atoms: C3_3  and  C4_4 
       I    between atoms: N1_10  and  C10_11 
       I    between atoms: C10_11  and  N2_12 

>  <TORSDO>
F 3

$$$$
../pdbqt/decoy.vina_out.55.pdbqt
 OpenBabel06052021513D

 16 16  0  0  1  0  0  0  0  0999 V2000
  -28.8490   64.2800   25.1320 C   0  0  0  0  0  0  0  0  0  0  0  0
  -27.9510   64.2460   26.3730 C   0  0  1  0  0  0  0  0  0  0  0  0
  -26.6450   65.0330   26.1520 C   0  0  0  0  0  0  0  0  0  0  0  0
  -25.4190   64.1970   26.4310 C   0  0  0  0  0  0  0  0  0  0  0  0
  -25.4500   63.2030   27.4250 C   0  0  0  0  0  0  0  0  0  0  0  0
  -24.3150   62.4300   27.6850 C   0  0  0  0  0  0  0  0  0  0  0  0
  -23.1400   62.6460   26.9600 C   0  0  0  0  0  0  0  0  0  0  0  0
  -23.0990   63.6360   25.9740 C   0  0  0  0  0  0  0  0  0  0  0  0
  -24.2320   64.4120   25.7110 C   0  0  0  0  0  0  0  0  0  0  0  0
  -28.6760   64.8270   27.5080 N   0  0  0  0  0  0  0  0  0  0  0  0
  -28.9010   64.1300   28.7420 C   0  0  0  0  0  0  0  0  0  0  0  0
  -29.6190   64.7660   29.7980 N   0  0  0  0  0  0  0  0  0  0  0  0
  -28.4690   62.9570   28.9040 O   0  0  0  0  0  0  0  0  0  0  0  0
  -29.7850   64.2650   30.6980 H   0  0  0  0  0  0  0  0  0  0  0  0
  -29.9840   65.7370   29.6820 H   0  0  0  0  0  0  0  0  0  0  0  0
  -29.0440   65.8010   27.4150 H   0  0  0  0  0  0  0  0  0  0  0  0
  2  1  1  6  0  0  0
  2 10  1  0  0  0  0
  3  2  1  0  0  0  0
  3  4  1  0  0  0  0
  4  5  2  0  0  0  0
  5  6  1  0  0  0  0
  7  6  2  0  0  0  0
  8  7  1  0  0  0  0
  9  8  2  0  0  0  0
  9  4  1  0  0  0  0
 10 11  1  0  0  0  0
 11 13  2  0  0  0  0
 11 12  1  0  0  0  0
 12 14  1  0  0  0  0
 15 12  1  0  0  0  0
 16 10  1  0  0  0  0
M  END
>  <REMARK>
 VINA RESULT:      -6.2      4.181      5.396
  3 active torsions:
  status: ('A' for Active; 'I' for Inactive)
    1  A    between atoms: C2_2  and  C3_3 
    2  A    between atoms: C2_2  and  N1_10 
    3  A    between atoms: C3_3  and  C4_4 
       I    between atoms: N1_10  and  C10_11 
       I    between atoms: C10_11  and  N2_12 

>  <TORSDO>
F 3

$$$$
../pdbqt/decoy.vina_out.55.pdbqt
 OpenBabel06052021513D

 16 16  0  0  1  0  0  0  0  0999 V2000
  -28.8950   64.5780   24.0670 C   0  0  0  0  0  0  0  0  0  0  0  0
  -27.8560   64.9000   25.1460 C   0  0  1  0  0  0  0  0  0  0  0  0
  -27.0100   66.1310   24.7710 C   0  0  0  0  0  0  0  0  0  0  0  0
  -25.5560   65.9600   25.1380 C   0  0  0  0  0  0  0  0  0  0  0  0
  -24.5580   66.6390   24.4180 C   0  0  0  0  0  0  0  0  0  0  0  0
  -23.2110   66.4800   24.7570 C   0  0  0  0  0  0  0  0  0  0  0  0
  -22.8500   65.6390   25.8130 C   0  0  0  0  0  0  0  0  0  0  0  0
  -23.8340   64.9560   26.5310 C   0  0  0  0  0  0  0  0  0  0  0  0
  -25.1830   65.1120   26.1950 C   0  0  0  0  0  0  0  0  0  0  0  0
  -28.5450   65.1580   26.4150 N   0  0  0  0  0  0  0  0  0  0  0  0
  -28.5470   64.2340   27.5130 C   0  0  0  0  0  0  0  0  0  0  0  0
  -29.2440   64.5600   28.7150 N   0  0  0  0  0  0  0  0  0  0  0  0
  -27.9380   63.1340   27.4280 O   0  0  0  0  0  0  0  0  0  0  0  0
  -29.2500   63.8930   29.5180 H   0  0  0  0  0  0  0  0  0  0  0  0
  -29.7540   65.4660   28.8050 H   0  0  0  0  0  0  0  0  0  0  0  0
  -29.0560   66.0630   26.5280 H   0  0  0  0  0  0  0  0  0  0  0  0
  2  1  1  6  0  0  0
  2 10  1  0  0  0  0
  3  4  1  0  0  0  0
  3  2  1  0  0  0  0
  4  9  2  0  0  0  0
  5  6  2  0  0  0  0
  5  4  1  0  0  0  0
  6  7  1  0  0  0  0
  7  8  2  0  0  0  0
  9  8  1  0  0  0  0
 10 16  1  0  0  0  0
 10 11  1  0  0  0  0
 11 12  1  0  0  0  0
 12 15  1  0  0  0  0
 12 14  1  0  0  0  0
 13 11  2  0  0  0  0
M  END
>  <REMARK>
 VINA RESULT:      -6.0      3.199      4.233
  3 active torsions:
  status: ('A' for Active; 'I' for Inactive)
    1  A    between atoms: C2_2  and  C3_3 
    2  A    between atoms: C2_2  and  N1_10 
    3  A    between atoms: C3_3  and  C4_4 
       I    between atoms: N1_10  and  C10_11 
       I    between atoms: C10_11  and  N2_12 

>  <TORSDO>
F 3

$$$$
../pdbqt/decoy.vina_out.55.pdbqt
 OpenBabel06052021513D

 16 16  0  0  1  0  0  0  0  0999 V2000
  -23.3520   63.2210   26.3050 C   0  0  0  0  0  0  0  0  0  0  0  0
  -24.0310   64.5440   25.9350 C   0  0  1  0  0  0  0  0  0  0  0  0
  -25.2490   64.8280   26.8360 C   0  0  0  0  0  0  0  0  0  0  0  0
  -26.5390   64.8860   26.0530 C   0  0  0  0  0  0  0  0  0  0  0  0
  -27.6230   64.0670   26.4120 C   0  0  0  0  0  0  0  0  0  0  0  0
  -28.8170   64.1200   25.6870 C   0  0  0  0  0  0  0  0  0  0  0  0
  -28.9370   64.9860   24.5970 C   0  0  0  0  0  0  0  0  0  0  0  0
  -27.8610   65.7990   24.2290 C   0  0  0  0  0  0  0  0  0  0  0  0
  -26.6640   65.7500   24.9510 C   0  0  0  0  0  0  0  0  0  0  0  0
  -23.0640   65.6370   26.0750 N   0  0  0  0  0  0  0  0  0  0  0  0
  -22.9120   66.6850   25.1070 C   0  0  0  0  0  0  0  0  0  0  0  0
  -21.9450   67.7130   25.3170 N   0  0  0  0  0  0  0  0  0  0  0  0
  -23.6270   66.7090   24.0700 O   0  0  0  0  0  0  0  0  0  0  0  0
  -21.8290   68.4790   24.6180 H   0  0  0  0  0  0  0  0  0  0  0  0
  -21.3440   67.7100   26.1710 H   0  0  0  0  0  0  0  0  0  0  0  0
  -22.4570   65.6570   26.9260 H   0  0  0  0  0  0  0  0  0  0  0  0
  2 10  1  0  0  0  0
  2  1  1  1  0  0  0
  2  3  1  0  0  0  0
  4  5  1  0  0  0  0
  4  3  1  0  0  0  0
  6  5  2  0  0  0  0
  7  6  1  0  0  0  0
  8  7  2  0  0  0  0
  8  9  1  0  0  0  0
  9  4  2  0  0  0  0
 10 16  1  0  0  0  0
 11 12  1  0  0  0  0
 11 10  1  0  0  0  0
 12 15  1  0  0  0  0
 13 11  2  0  0  0  0
 14 12  1  0  0  0  0
M  END
>  <REMARK>
 VINA RESULT:      -6.0      2.723      5.379
  3 active torsions:
  status: ('A' for Active; 'I' for Inactive)
    1  A    between atoms: C2_2  and  C3_3 
    2  A    between atoms: C2_2  and  N1_10 
    3  A    between atoms: C3_3  and  C4_4 
       I    between atoms: N1_10  and  C10_11 
       I    between atoms: C10_11  and  N2_12 

>  <TORSDO>
F 3

$$$$
../pdbqt/decoy.vina_out.55.pdbqt
 OpenBabel06052021513D

 16 16  0  0  1  0  0  0  0  0999 V2000
  -22.5450   66.4890   25.5110 C   0  0  0  0  0  0  0  0  0  0  0  0
  -23.6560   65.4570   25.2940 C   0  0  1  0  0  0  0  0  0  0  0  0
  -24.9680   66.1220   24.8370 C   0  0  0  0  0  0  0  0  0  0  0  0
  -26.1880   65.4080   25.3680 C   0  0  0  0  0  0  0  0  0  0  0  0
  -27.4120   65.4870   24.6800 C   0  0  0  0  0  0  0  0  0  0  0  0
  -28.5410   64.8270   25.1720 C   0  0  0  0  0  0  0  0  0  0  0  0
  -28.4600   64.0880   26.3550 C   0  0  0  0  0  0  0  0  0  0  0  0
  -27.2500   64.0080   27.0480 C   0  0  0  0  0  0  0  0  0  0  0  0
  -26.1170   64.6670   26.5600 C   0  0  0  0  0  0  0  0  0  0  0  0
  -23.2260   64.4930   24.2760 N   0  0  0  0  0  0  0  0  0  0  0  0
  -22.5410   63.2710   24.5850 C   0  0  0  0  0  0  0  0  0  0  0  0
  -22.1540   62.3860   23.5350 N   0  0  0  0  0  0  0  0  0  0  0  0
  -22.2780   62.9670   25.7800 O   0  0  0  0  0  0  0  0  0  0  0  0
  -21.6560   61.4950   23.7520 H   0  0  0  0  0  0  0  0  0  0  0  0
  -22.3640   62.6200   22.5390 H   0  0  0  0  0  0  0  0  0  0  0  0
  -23.4320   64.7050   23.2730 H   0  0  0  0  0  0  0  0  0  0  0  0
  2  1  1  6  0  0  0
  3  2  1  0  0  0  0
  3  4  1  0  0  0  0
  4  9  2  0  0  0  0
  5  6  2  0  0  0  0
  5  4  1  0  0  0  0
  6  7  1  0  0  0  0
  7  8  2  0  0  0  0
  9  8  1  0  0  0  0
 10 11  1  0  0  0  0
 10  2  1  0  0  0  0
 11 13  2  0  0  0  0
 12 14  1  0  0  0  0
 12 11  1  0  0  0  0
 15 12  1  0  0  0  0
 16 10  1  0  0  0  0
M  END
>  <REMARK>
 VINA RESULT:      -6.0      2.921      5.380
  3 active torsions:
  status: ('A' for Active; 'I' for Inactive)
    1  A    between atoms: C2_2  and  C3_3 
    2  A    between atoms: C2_2  and  N1_10 
    3  A    between atoms: C3_3  and  C4_4 
       I    between atoms: N1_10  and  C10_11 
       I    between atoms: C10_11  and  N2_12 

>  <TORSDO>
F 3

$$$$
