../pdbqt/decoy.vina_out.43.pdbqt
 OpenBabel06052021513D

 19 21  0  0  0  0  0  0  0  0999 V2000
  -25.5500   67.0000   23.2500 C   0  0  0  0  0  0  0  0  0  0  0  0
  -26.0290   66.1480   24.3910 C   0  0  0  0  0  0  0  0  0  0  0  0
  -25.2080   65.3200   25.1590 C   0  0  0  0  0  0  0  0  0  0  0  0
  -26.0530   64.6830   26.0520 C   0  0  0  0  0  0  0  0  0  0  0  0
  -25.7850   63.7760   27.0810 C   0  0  0  0  0  0  0  0  0  0  0  0
  -26.8670   63.2910   27.8330 C   0  0  0  0  0  0  0  0  0  0  0  0
  -28.1800   63.7210   27.5530 C   0  0  0  0  0  0  0  0  0  0  0  0
  -28.4240   64.6490   26.5260 C   0  0  0  0  0  0  0  0  0  0  0  0
  -27.3300   65.1250   25.7910 C   0  0  0  0  0  0  0  0  0  0  0  0
  -27.3250   66.0310   24.7870 N   0  0  0  0  0  0  0  0  0  0  0  0
  -28.4810   66.7110   24.1970 C   0  0  0  0  0  0  0  0  0  0  0  0
  -23.7420   65.1650   25.0370 C   0  0  0  0  0  0  0  0  0  0  0  0
  -23.2910   64.2480   24.2990 O   0  0  0  0  0  0  0  0  0  0  0  0
  -22.7960   66.0430   25.7640 C   0  0  0  0  0  0  0  0  0  0  0  0
  -22.2500   67.1720   25.1250 C   0  0  0  0  0  0  0  0  0  0  0  0
  -21.3480   68.0000   25.8020 C   0  0  0  0  0  0  0  0  0  0  0  0
  -20.9760   67.7060   27.1150 C   0  0  0  0  0  0  0  0  0  0  0  0
  -21.5000   66.5800   27.7550 C   0  0  0  0  0  0  0  0  0  0  0  0
  -22.4010   65.7480   27.0820 C   0  0  0  0  0  0  0  0  0  0  0  0
  1  2  1  0  0  0  0
  2 10  1  0  0  0  0
  2  3  2  0  0  0  0
  3  4  1  0  0  0  0
  4  5  1  0  0  0  0
  5  6  2  0  0  0  0
  7  6  1  0  0  0  0
  8  7  2  0  0  0  0
  9  4  2  0  0  0  0
  9  8  1  0  0  0  0
 10  9  1  0  0  0  0
 11 10  1  0  0  0  0
 12  3  1  0  0  0  0
 12 14  1  0  0  0  0
 13 12  2  0  0  0  0
 14 19  1  0  0  0  0
 15 14  2  0  0  0  0
 15 16  1  0  0  0  0
 16 17  2  0  0  0  0
 17 18  1  0  0  0  0
 19 18  2  0  0  0  0
M  END
>  <MODEL>
1

>  <REMARK>
 VINA RESULT:      -8.7      0.000      0.000
  2 active torsions:
  status: ('A' for Active; 'I' for Inactive)
    1  A    between atoms: C3_3  and  C4_4 
    2  A    between atoms: C4_4  and  C5_6 

>  <TORSDO>
F 2

$$$$
../pdbqt/decoy.vina_out.43.pdbqt
 OpenBabel06052021513D

 19 21  0  0  0  0  0  0  0  0999 V2000
  -25.4610   67.0620   23.2390 C   0  0  0  0  0  0  0  0  0  0  0  0
  -25.9670   66.2300   24.3830 C   0  0  0  0  0  0  0  0  0  0  0  0
  -25.1510   65.5410   25.2810 C   0  0  0  0  0  0  0  0  0  0  0  0
  -26.0150   64.8680   26.1280 C   0  0  0  0  0  0  0  0  0  0  0  0
  -25.7640   64.0560   27.2380 C   0  0  0  0  0  0  0  0  0  0  0  0
  -26.8640   63.5010   27.9120 C   0  0  0  0  0  0  0  0  0  0  0  0
  -28.1780   63.7690   27.4770 C   0  0  0  0  0  0  0  0  0  0  0  0
  -28.4070   64.6050   26.3710 C   0  0  0  0  0  0  0  0  0  0  0  0
  -27.2960   65.1540   25.7160 C   0  0  0  0  0  0  0  0  0  0  0  0
  -27.2790   65.9970   24.6570 N   0  0  0  0  0  0  0  0  0  0  0  0
  -28.4300   66.5130   23.9130 C   0  0  0  0  0  0  0  0  0  0  0  0
  -23.6720   65.5380   25.3130 C   0  0  0  0  0  0  0  0  0  0  0  0
  -23.0680   66.6300   25.4870 O   0  0  0  0  0  0  0  0  0  0  0  0
  -22.8860   64.2950   25.1330 C   0  0  0  0  0  0  0  0  0  0  0  0
  -22.1770   63.7460   26.2180 C   0  0  0  0  0  0  0  0  0  0  0  0
  -21.4240   62.5790   26.0530 C   0  0  0  0  0  0  0  0  0  0  0  0
  -21.3640   61.9540   24.8060 C   0  0  0  0  0  0  0  0  0  0  0  0
  -22.0510   62.4970   23.7180 C   0  0  0  0  0  0  0  0  0  0  0  0
  -22.8040   63.6650   23.8770 C   0  0  0  0  0  0  0  0  0  0  0  0
  1  2  1  0  0  0  0
  2 10  1  0  0  0  0
  2  3  2  0  0  0  0
  3 12  1  0  0  0  0
  3  4  1  0  0  0  0
  4  5  1  0  0  0  0
  5  6  2  0  0  0  0
  7  6  1  0  0  0  0
  8  7  2  0  0  0  0
  9  4  2  0  0  0  0
  9  8  1  0  0  0  0
 10  9  1  0  0  0  0
 11 10  1  0  0  0  0
 12 13  2  0  0  0  0
 14 12  1  0  0  0  0
 14 15  2  0  0  0  0
 16 15  1  0  0  0  0
 17 16  2  0  0  0  0
 18 19  2  0  0  0  0
 18 17  1  0  0  0  0
 19 14  1  0  0  0  0
M  END
>  <REMARK>
 VINA RESULT:      -8.7      1.753      2.717
  2 active torsions:
  status: ('A' for Active; 'I' for Inactive)
    1  A    between atoms: C3_3  and  C4_4 
    2  A    between atoms: C4_4  and  C5_6 

>  <TORSDO>
F 2

$$$$
../pdbqt/decoy.vina_out.43.pdbqt
 OpenBabel06052021513D

 19 21  0  0  0  0  0  0  0  0999 V2000
  -25.4000   63.1920   27.8370 C   0  0  0  0  0  0  0  0  0  0  0  0
  -25.7080   64.1590   26.7290 C   0  0  0  0  0  0  0  0  0  0  0  0
  -24.7490   64.9010   26.0370 C   0  0  0  0  0  0  0  0  0  0  0  0
  -25.4600   65.6940   25.1530 C   0  0  0  0  0  0  0  0  0  0  0  0
  -25.0250   66.6050   24.1850 C   0  0  0  0  0  0  0  0  0  0  0  0
  -25.9970   67.2730   23.4240 C   0  0  0  0  0  0  0  0  0  0  0  0
  -27.3680   67.0190   23.6340 C   0  0  0  0  0  0  0  0  0  0  0  0
  -27.7810   66.0840   24.5980 C   0  0  0  0  0  0  0  0  0  0  0  0
  -26.7950   65.4230   25.3430 C   0  0  0  0  0  0  0  0  0  0  0  0
  -26.9580   64.4760   26.2960 N   0  0  0  0  0  0  0  0  0  0  0  0
  -28.2210   63.9360   26.8060 C   0  0  0  0  0  0  0  0  0  0  0  0
  -23.2830   64.8430   26.2190 C   0  0  0  0  0  0  0  0  0  0  0  0
  -22.7320   65.6940   26.9680 O   0  0  0  0  0  0  0  0  0  0  0  0
  -22.4460   63.8260   25.5390 C   0  0  0  0  0  0  0  0  0  0  0  0
  -21.3780   63.2190   26.2260 C   0  0  0  0  0  0  0  0  0  0  0  0
  -20.5780   62.2660   25.5880 C   0  0  0  0  0  0  0  0  0  0  0  0
  -20.8290   61.9170   24.2590 C   0  0  0  0  0  0  0  0  0  0  0  0
  -21.8770   62.5230   23.5620 C   0  0  0  0  0  0  0  0  0  0  0  0
  -22.6790   63.4780   24.1960 C   0  0  0  0  0  0  0  0  0  0  0  0
  2  1  1  0  0  0  0
  3 12  1  0  0  0  0
  3  2  2  0  0  0  0
  4  9  1  0  0  0  0
  4  3  1  0  0  0  0
  5  4  2  0  0  0  0
  6  7  2  0  0  0  0
  6  5  1  0  0  0  0
  7  8  1  0  0  0  0
  8  9  2  0  0  0  0
  9 10  1  0  0  0  0
 10  2  1  0  0  0  0
 10 11  1  0  0  0  0
 12 13  2  0  0  0  0
 14 12  1  0  0  0  0
 14 15  2  0  0  0  0
 16 15  1  0  0  0  0
 17 16  2  0  0  0  0
 18 19  2  0  0  0  0
 18 17  1  0  0  0  0
 19 14  1  0  0  0  0
M  END
>  <REMARK>
 VINA RESULT:      -8.6      2.185      4.048
  2 active torsions:
  status: ('A' for Active; 'I' for Inactive)
    1  A    between atoms: C3_3  and  C4_4 
    2  A    between atoms: C4_4  and  C5_6 

>  <TORSDO>
F 2

$$$$
../pdbqt/decoy.vina_out.43.pdbqt
 OpenBabel06052021513D

 19 21  0  0  0  0  0  0  0  0999 V2000
  -24.8560   63.1000   27.6360 C   0  0  0  0  0  0  0  0  0  0  0  0
  -25.5830   64.0160   26.6930 C   0  0  0  0  0  0  0  0  0  0  0  0
  -24.9620   64.8140   25.7300 C   0  0  0  0  0  0  0  0  0  0  0  0
  -25.9820   65.5300   25.1270 C   0  0  0  0  0  0  0  0  0  0  0  0
  -25.9590   66.4500   24.0740 C   0  0  0  0  0  0  0  0  0  0  0  0
  -27.1750   67.0250   23.6730 C   0  0  0  0  0  0  0  0  0  0  0  0
  -28.3790   66.6700   24.3150 C   0  0  0  0  0  0  0  0  0  0  0  0
  -28.3820   65.7270   25.3570 C   0  0  0  0  0  0  0  0  0  0  0  0
  -27.1570   65.1610   25.7390 C   0  0  0  0  0  0  0  0  0  0  0  0
  -26.9270   64.2250   26.6890 N   0  0  0  0  0  0  0  0  0  0  0  0
  -27.9090   63.6010   27.5790 C   0  0  0  0  0  0  0  0  0  0  0  0
  -23.5160   64.8730   25.4260 C   0  0  0  0  0  0  0  0  0  0  0  0
  -23.0170   63.9860   24.6840 O   0  0  0  0  0  0  0  0  0  0  0  0
  -22.6410   65.9340   25.9790 C   0  0  0  0  0  0  0  0  0  0  0  0
  -22.2580   67.0220   25.1720 C   0  0  0  0  0  0  0  0  0  0  0  0
  -21.4240   68.0220   25.6840 C   0  0  0  0  0  0  0  0  0  0  0  0
  -20.9570   67.9410   26.9980 C   0  0  0  0  0  0  0  0  0  0  0  0
  -21.3180   66.8580   27.8030 C   0  0  0  0  0  0  0  0  0  0  0  0
  -22.1510   65.8550   27.2960 C   0  0  0  0  0  0  0  0  0  0  0  0
  2  1  1  0  0  0  0
  3  2  2  0  0  0  0
  4  3  1  0  0  0  0
  4  9  2  0  0  0  0
  5  4  1  0  0  0  0
  6  5  2  0  0  0  0
  6  7  1  0  0  0  0
  7  8  2  0  0  0  0
  8  9  1  0  0  0  0
  9 10  1  0  0  0  0
 10  2  1  0  0  0  0
 10 11  1  0  0  0  0
 12  3  1  0  0  0  0
 12 14  1  0  0  0  0
 13 12  2  0  0  0  0
 14 19  2  0  0  0  0
 15 16  2  0  0  0  0
 15 14  1  0  0  0  0
 16 17  1  0  0  0  0
 17 18  2  0  0  0  0
 19 18  1  0  0  0  0
M  END
>  <REMARK>
 VINA RESULT:      -8.5      0.897      2.772
  2 active torsions:
  status: ('A' for Active; 'I' for Inactive)
    1  A    between atoms: C3_3  and  C4_4 
    2  A    between atoms: C4_4  and  C5_6 

>  <TORSDO>
F 2

$$$$
../pdbqt/decoy.vina_out.43.pdbqt
 OpenBabel06052021513D

 19 21  0  0  0  0  0  0  0  0999 V2000
  -23.4060   66.6360   24.8300 C   0  0  0  0  0  0  0  0  0  0  0  0
  -24.8230   66.1450   24.9320 C   0  0  0  0  0  0  0  0  0  0  0  0
  -25.2870   65.2690   25.9150 C   0  0  0  0  0  0  0  0  0  0  0  0
  -26.6170   65.0390   25.6090 C   0  0  0  0  0  0  0  0  0  0  0  0
  -27.5910   64.2780   26.2640 C   0  0  0  0  0  0  0  0  0  0  0  0
  -28.8780   64.2320   25.7060 C   0  0  0  0  0  0  0  0  0  0  0  0
  -29.1710   64.9430   24.5240 C   0  0  0  0  0  0  0  0  0  0  0  0
  -28.1820   65.7180   23.8940 C   0  0  0  0  0  0  0  0  0  0  0  0
  -26.9040   65.7550   24.4700 C   0  0  0  0  0  0  0  0  0  0  0  0
  -25.8170   66.4460   24.0550 N   0  0  0  0  0  0  0  0  0  0  0  0
  -25.7060   67.3010   22.8710 C   0  0  0  0  0  0  0  0  0  0  0  0
  -24.5110   64.7110   27.0430 C   0  0  0  0  0  0  0  0  0  0  0  0
  -23.3100   65.0640   27.1850 O   0  0  0  0  0  0  0  0  0  0  0  0
  -25.1000   63.7420   27.9980 C   0  0  0  0  0  0  0  0  0  0  0  0
  -25.7060   64.2010   29.1830 C   0  0  0  0  0  0  0  0  0  0  0  0
  -26.2550   63.2920   30.0930 C   0  0  0  0  0  0  0  0  0  0  0  0
  -26.1960   61.9200   29.8360 C   0  0  0  0  0  0  0  0  0  0  0  0
  -25.5850   61.4520   28.6710 C   0  0  0  0  0  0  0  0  0  0  0  0
  -25.0330   62.3570   27.7580 C   0  0  0  0  0  0  0  0  0  0  0  0
  1  2  1  0  0  0  0
  2  3  2  0  0  0  0
  3 12  1  0  0  0  0
  4  3  1  0  0  0  0
  4  5  2  0  0  0  0
  6  5  1  0  0  0  0
  7  6  2  0  0  0  0
  8  9  2  0  0  0  0
  8  7  1  0  0  0  0
  9  4  1  0  0  0  0
 10  9  1  0  0  0  0
 10  2  1  0  0  0  0
 11 10  1  0  0  0  0
 12 13  2  0  0  0  0
 12 14  1  0  0  0  0
 14 15  1  0  0  0  0
 15 16  2  0  0  0  0
 17 16  1  0  0  0  0
 18 17  2  0  0  0  0
 19 14  2  0  0  0  0
 19 18  1  0  0  0  0
M  END
>  <REMARK>
 VINA RESULT:      -8.4      1.870      4.109
  2 active torsions:
  status: ('A' for Active; 'I' for Inactive)
    1  A    between atoms: C3_3  and  C4_4 
    2  A    between atoms: C4_4  and  C5_6 

>  <TORSDO>
F 2

$$$$
../pdbqt/decoy.vina_out.43.pdbqt
 OpenBabel06052021513D

 19 21  0  0  0  0  0  0  0  0999 V2000
  -23.1820   66.7200   24.6920 C   0  0  0  0  0  0  0  0  0  0  0  0
  -24.4790   66.1020   25.1340 C   0  0  0  0  0  0  0  0  0  0  0  0
  -24.5990   65.1640   26.1610 C   0  0  0  0  0  0  0  0  0  0  0  0
  -25.9400   64.8240   26.1990 C   0  0  0  0  0  0  0  0  0  0  0  0
  -26.6440   63.9640   27.0470 C   0  0  0  0  0  0  0  0  0  0  0  0
  -28.0250   63.8170   26.8390 C   0  0  0  0  0  0  0  0  0  0  0  0
  -28.6720   64.5290   25.8090 C   0  0  0  0  0  0  0  0  0  0  0  0
  -27.9480   65.4050   24.9820 C   0  0  0  0  0  0  0  0  0  0  0  0
  -26.5710   65.5410   25.2090 C   0  0  0  0  0  0  0  0  0  0  0  0
  -25.6890   66.3360   24.5600 N   0  0  0  0  0  0  0  0  0  0  0  0
  -25.9600   67.2270   23.4290 C   0  0  0  0  0  0  0  0  0  0  0  0
  -23.5120   64.6480   27.0220 C   0  0  0  0  0  0  0  0  0  0  0  0
  -23.5220   64.9390   28.2480 O   0  0  0  0  0  0  0  0  0  0  0  0
  -22.4120   63.8130   26.4830 C   0  0  0  0  0  0  0  0  0  0  0  0
  -22.6420   62.9730   25.3770 C   0  0  0  0  0  0  0  0  0  0  0  0
  -21.6120   62.1750   24.8700 C   0  0  0  0  0  0  0  0  0  0  0  0
  -20.3480   62.2010   25.4640 C   0  0  0  0  0  0  0  0  0  0  0  0
  -20.1110   63.0200   26.5700 C   0  0  0  0  0  0  0  0  0  0  0  0
  -21.1390   63.8190   27.0820 C   0  0  0  0  0  0  0  0  0  0  0  0
  1  2  1  0  0  0  0
  2  3  2  0  0  0  0
  3  4  1  0  0  0  0
  3 12  1  0  0  0  0
  4  5  2  0  0  0  0
  6  5  1  0  0  0  0
  7  6  2  0  0  0  0
  8  9  2  0  0  0  0
  8  7  1  0  0  0  0
  9  4  1  0  0  0  0
 10  2  1  0  0  0  0
 10  9  1  0  0  0  0
 11 10  1  0  0  0  0
 12 13  2  0  0  0  0
 14 12  1  0  0  0  0
 14 19  2  0  0  0  0
 15 14  1  0  0  0  0
 16 15  2  0  0  0  0
 16 17  1  0  0  0  0
 17 18  2  0  0  0  0
 18 19  1  0  0  0  0
M  END
>  <REMARK>
 VINA RESULT:      -8.3      2.189      2.967
  2 active torsions:
  status: ('A' for Active; 'I' for Inactive)
    1  A    between atoms: C3_3  and  C4_4 
    2  A    between atoms: C4_4  and  C5_6 

>  <TORSDO>
F 2

$$$$
../pdbqt/decoy.vina_out.43.pdbqt
 OpenBabel06052021513D

 19 21  0  0  0  0  0  0  0  0999 V2000
  -23.1550   64.9920   26.7190 C   0  0  0  0  0  0  0  0  0  0  0  0
  -24.5890   65.0370   26.2740 C   0  0  0  0  0  0  0  0  0  0  0  0
  -25.6170   64.2780   26.8360 C   0  0  0  0  0  0  0  0  0  0  0  0
  -26.7490   64.5820   26.1000 C   0  0  0  0  0  0  0  0  0  0  0  0
  -28.0730   64.1520   26.2350 C   0  0  0  0  0  0  0  0  0  0  0  0
  -29.0210   64.6400   25.3220 C   0  0  0  0  0  0  0  0  0  0  0  0
  -28.6390   65.5440   24.3100 C   0  0  0  0  0  0  0  0  0  0  0  0
  -27.3070   65.9780   24.2060 C   0  0  0  0  0  0  0  0  0  0  0  0
  -26.3760   65.4830   25.1300 C   0  0  0  0  0  0  0  0  0  0  0  0
  -25.0600   65.7790   25.2350 N   0  0  0  0  0  0  0  0  0  0  0  0
  -24.2780   66.6700   24.3750 C   0  0  0  0  0  0  0  0  0  0  0  0
  -25.5070   63.3470   27.9800 C   0  0  0  0  0  0  0  0  0  0  0  0
  -25.2660   62.1310   27.7500 O   0  0  0  0  0  0  0  0  0  0  0  0
  -25.6840   63.7980   29.3800 C   0  0  0  0  0  0  0  0  0  0  0  0
  -26.9020   63.5680   30.0460 C   0  0  0  0  0  0  0  0  0  0  0  0
  -27.0800   64.0000   31.3640 C   0  0  0  0  0  0  0  0  0  0  0  0
  -26.0510   64.6730   32.0260 C   0  0  0  0  0  0  0  0  0  0  0  0
  -24.8420   64.9200   31.3710 C   0  0  0  0  0  0  0  0  0  0  0  0
  -24.6600   64.4910   30.0520 C   0  0  0  0  0  0  0  0  0  0  0  0
  2  1  1  0  0  0  0
  2  3  2  0  0  0  0
  3 12  1  0  0  0  0
  4  5  1  0  0  0  0
  4  3  1  0  0  0  0
  6  5  2  0  0  0  0
  7  6  1  0  0  0  0
  8  7  2  0  0  0  0
  8  9  1  0  0  0  0
  9 10  1  0  0  0  0
  9  4  2  0  0  0  0
 10  2  1  0  0  0  0
 11 10  1  0  0  0  0
 12 14  1  0  0  0  0
 13 12  2  0  0  0  0
 14 15  2  0  0  0  0
 14 19  1  0  0  0  0
 15 16  1  0  0  0  0
 16 17  2  0  0  0  0
 18 17  1  0  0  0  0
 19 18  2  0  0  0  0
M  END
>  <REMARK>
 VINA RESULT:      -7.8      2.429      4.595
  2 active torsions:
  status: ('A' for Active; 'I' for Inactive)
    1  A    between atoms: C3_3  and  C4_4 
    2  A    between atoms: C4_4  and  C5_6 

>  <TORSDO>
F 2

$$$$
../pdbqt/decoy.vina_out.43.pdbqt
 OpenBabel06052021513D

 19 21  0  0  0  0  0  0  0  0999 V2000
  -23.0020   66.3910   24.8070 C   0  0  0  0  0  0  0  0  0  0  0  0
  -24.4000   65.9450   25.1290 C   0  0  0  0  0  0  0  0  0  0  0  0
  -24.7220   64.9800   26.0850 C   0  0  0  0  0  0  0  0  0  0  0  0
  -26.0980   64.8370   26.0190 C   0  0  0  0  0  0  0  0  0  0  0  0
  -26.9740   64.0430   26.7670 C   0  0  0  0  0  0  0  0  0  0  0  0
  -28.3440   64.1100   26.4670 C   0  0  0  0  0  0  0  0  0  0  0  0
  -28.8110   64.9640   25.4470 C   0  0  0  0  0  0  0  0  0  0  0  0
  -27.9140   65.7680   24.7220 C   0  0  0  0  0  0  0  0  0  0  0  0
  -26.5510   65.6900   25.0410 C   0  0  0  0  0  0  0  0  0  0  0  0
  -25.5230   66.3830   24.4980 N   0  0  0  0  0  0  0  0  0  0  0  0
  -25.5860   67.3640   23.4130 C   0  0  0  0  0  0  0  0  0  0  0  0
  -23.7820   64.2650   26.9760 C   0  0  0  0  0  0  0  0  0  0  0  0
  -23.2180   63.2230   26.5480 O   0  0  0  0  0  0  0  0  0  0  0  0
  -23.4980   64.7310   28.3530 C   0  0  0  0  0  0  0  0  0  0  0  0
  -24.3530   64.3680   29.4100 C   0  0  0  0  0  0  0  0  0  0  0  0
  -24.0970   64.8120   30.7110 C   0  0  0  0  0  0  0  0  0  0  0  0
  -22.9930   65.6280   30.9690 C   0  0  0  0  0  0  0  0  0  0  0  0
  -22.1450   66.0070   29.9250 C   0  0  0  0  0  0  0  0  0  0  0  0
  -22.3980   65.5670   28.6220 C   0  0  0  0  0  0  0  0  0  0  0  0
  1  2  1  0  0  0  0
  2  3  2  0  0  0  0
  3 12  1  0  0  0  0
  4  3  1  0  0  0  0
  4  5  2  0  0  0  0
  6  5  1  0  0  0  0
  7  6  2  0  0  0  0
  8  9  2  0  0  0  0
  8  7  1  0  0  0  0
  9  4  1  0  0  0  0
 10  9  1  0  0  0  0
 10  2  1  0  0  0  0
 11 10  1  0  0  0  0
 12 14  1  0  0  0  0
 13 12  2  0  0  0  0
 14 19  2  0  0  0  0
 14 15  1  0  0  0  0
 15 16  2  0  0  0  0
 16 17  1  0  0  0  0
 18 17  2  0  0  0  0
 19 18  1  0  0  0  0
M  END
>  <REMARK>
 VINA RESULT:      -7.8      1.958      2.980
  2 active torsions:
  status: ('A' for Active; 'I' for Inactive)
    1  A    between atoms: C3_3  and  C4_4 
    2  A    between atoms: C4_4  and  C5_6 

>  <TORSDO>
F 2

$$$$
../pdbqt/decoy.vina_out.43.pdbqt
 OpenBabel06052021513D

 19 21  0  0  0  0  0  0  0  0999 V2000
  -23.1070   63.9520   28.3830 C   0  0  0  0  0  0  0  0  0  0  0  0
  -24.2580   64.3420   27.4990 C   0  0  0  0  0  0  0  0  0  0  0  0
  -24.1310   65.0460   26.3010 C   0  0  0  0  0  0  0  0  0  0  0  0
  -25.4240   65.2400   25.8450 C   0  0  0  0  0  0  0  0  0  0  0  0
  -25.9040   65.8460   24.6800 C   0  0  0  0  0  0  0  0  0  0  0  0
  -27.2940   65.8960   24.4870 C   0  0  0  0  0  0  0  0  0  0  0  0
  -28.1680   65.3390   25.4430 C   0  0  0  0  0  0  0  0  0  0  0  0
  -27.6620   64.7170   26.5970 C   0  0  0  0  0  0  0  0  0  0  0  0
  -26.2710   64.6730   26.7680 C   0  0  0  0  0  0  0  0  0  0  0  0
  -25.5690   64.1100   27.7780 N   0  0  0  0  0  0  0  0  0  0  0  0
  -26.1020   63.4350   28.9640 C   0  0  0  0  0  0  0  0  0  0  0  0
  -22.8730   65.4870   25.6600 C   0  0  0  0  0  0  0  0  0  0  0  0
  -22.4620   66.6590   25.8750 O   0  0  0  0  0  0  0  0  0  0  0  0
  -22.0930   64.5980   24.7660 C   0  0  0  0  0  0  0  0  0  0  0  0
  -20.7830   64.9500   24.3910 C   0  0  0  0  0  0  0  0  0  0  0  0
  -20.0450   64.1210   23.5410 C   0  0  0  0  0  0  0  0  0  0  0  0
  -20.6080   62.9400   23.0490 C   0  0  0  0  0  0  0  0  0  0  0  0
  -21.9120   62.5880   23.4030 C   0  0  0  0  0  0  0  0  0  0  0  0
  -22.6550   63.4140   24.2530 C   0  0  0  0  0  0  0  0  0  0  0  0
  2 10  1  0  0  0  0
  2  1  1  0  0  0  0
  3  2  2  0  0  0  0
  4  3  1  0  0  0  0
  4  9  2  0  0  0  0
  5  4  1  0  0  0  0
  6  5  2  0  0  0  0
  6  7  1  0  0  0  0
  7  8  2  0  0  0  0
  8  9  1  0  0  0  0
  9 10  1  0  0  0  0
 10 11  1  0  0  0  0
 12 13  2  0  0  0  0
 12  3  1  0  0  0  0
 14 12  1  0  0  0  0
 15 14  1  0  0  0  0
 16 15  2  0  0  0  0
 17 18  2  0  0  0  0
 17 16  1  0  0  0  0
 18 19  1  0  0  0  0
 19 14  2  0  0  0  0
M  END
>  <REMARK>
 VINA RESULT:      -7.6      2.340      3.874
  2 active torsions:
  status: ('A' for Active; 'I' for Inactive)
    1  A    between atoms: C3_3  and  C4_4 
    2  A    between atoms: C4_4  and  C5_6 

>  <TORSDO>
F 2

$$$$
