../pdbqt/decoy.vina_out.4.pdbqt
 OpenBabel06052021513D

 12 13  0  0  0  0  0  0  0  0999 V2000
  -25.1330   67.2950   22.9150 O   0  0  0  0  0  0  0  0  0  0  0  0
  -24.8360   66.5930   24.0780 C   0  0  0  0  0  0  0  0  0  0  0  0
  -23.5020   66.5080   24.4940 C   0  0  0  0  0  0  0  0  0  0  0  0
  -23.1680   65.8120   25.6570 C   0  0  0  0  0  0  0  0  0  0  0  0
  -24.1690   65.1950   26.4110 C   0  0  0  0  0  0  0  0  0  0  0  0
  -25.5030   65.2730   26.0050 C   0  0  0  0  0  0  0  0  0  0  0  0
  -25.8540   65.9730   24.8340 C   0  0  0  0  0  0  0  0  0  0  0  0
  -27.2740   66.0450   24.4200 C   0  0  0  0  0  0  0  0  0  0  0  0
  -27.8770   67.1600   23.9610 N   0  0  0  0  0  0  0  0  0  0  0  0
  -29.1310   66.8250   23.6990 N   0  0  0  0  0  0  0  0  0  0  0  0
  -29.2510   65.5200   24.0050 C   0  0  0  0  0  0  0  0  0  0  0  0
  -28.1150   65.0370   24.4480 O   0  0  0  0  0  0  0  0  0  0  0  0
  1  2  1  0  0  0  0
  2  3  2  0  0  0  0
  2  7  1  0  0  0  0
  3  4  1  0  0  0  0
  4  5  2  0  0  0  0
  6  5  1  0  0  0  0
  7  6  2  0  0  0  0
  8 12  1  0  0  0  0
  8  7  1  0  0  0  0
  9  8  2  0  0  0  0
 10  9  1  0  0  0  0
 10 11  2  0  0  0  0
 11 12  1  0  0  0  0
M  END
>  <MODEL>
1

>  <REMARK>
 VINA RESULT:      -6.8      0.000      0.000
  1 active torsions:
  status: ('A' for Active; 'I' for Inactive)
    1  A    between atoms: C6_7  and  C7_8 

>  <TORSDO>
F 1

$$$$
../pdbqt/decoy.vina_out.4.pdbqt
 OpenBabel06052021513D

 12 13  0  0  0  0  0  0  0  0999 V2000
  -29.2670   65.1290   24.1130 O   0  0  0  0  0  0  0  0  0  0  0  0
  -27.9630   65.6110   24.0960 C   0  0  0  0  0  0  0  0  0  0  0  0
  -27.5120   66.3010   22.9650 C   0  0  0  0  0  0  0  0  0  0  0  0
  -26.2080   66.7980   22.9140 C   0  0  0  0  0  0  0  0  0  0  0  0
  -25.3470   66.6080   23.9970 C   0  0  0  0  0  0  0  0  0  0  0  0
  -25.7870   65.9210   25.1310 C   0  0  0  0  0  0  0  0  0  0  0  0
  -27.1000   65.4140   25.1960 C   0  0  0  0  0  0  0  0  0  0  0  0
  -27.5480   64.6890   26.4070 C   0  0  0  0  0  0  0  0  0  0  0  0
  -28.5510   65.0960   27.2090 N   0  0  0  0  0  0  0  0  0  0  0  0
  -28.6480   64.1930   28.1730 N   0  0  0  0  0  0  0  0  0  0  0  0
  -27.7030   63.2670   27.9260 C   0  0  0  0  0  0  0  0  0  0  0  0
  -27.0260   63.5670   26.8450 O   0  0  0  0  0  0  0  0  0  0  0  0
  2  1  1  0  0  0  0
  2  7  2  0  0  0  0
  3  2  1  0  0  0  0
  4  3  2  0  0  0  0
  4  5  1  0  0  0  0
  5  6  2  0  0  0  0
  6  7  1  0  0  0  0
  7  8  1  0  0  0  0
  8 12  1  0  0  0  0
  8  9  2  0  0  0  0
  9 10  1  0  0  0  0
 11 10  2  0  0  0  0
 12 11  1  0  0  0  0
M  END
>  <REMARK>
 VINA RESULT:      -6.7      2.547      3.684
  1 active torsions:
  status: ('A' for Active; 'I' for Inactive)
    1  A    between atoms: C6_7  and  C7_8 

>  <TORSDO>
F 1

$$$$
../pdbqt/decoy.vina_out.4.pdbqt
 OpenBabel06052021513D

 12 13  0  0  0  0  0  0  0  0999 V2000
  -25.5320   67.0900   22.5350 O   0  0  0  0  0  0  0  0  0  0  0  0
  -26.2180   66.4670   23.5710 C   0  0  0  0  0  0  0  0  0  0  0  0
  -27.6170   66.4310   23.5300 C   0  0  0  0  0  0  0  0  0  0  0  0
  -28.3370   65.8130   24.5540 C   0  0  0  0  0  0  0  0  0  0  0  0
  -27.6620   65.2270   25.6260 C   0  0  0  0  0  0  0  0  0  0  0  0
  -26.2660   65.2570   25.6770 C   0  0  0  0  0  0  0  0  0  0  0  0
  -25.5270   65.8770   24.6510 C   0  0  0  0  0  0  0  0  0  0  0  0
  -24.0480   65.8990   24.7230 C   0  0  0  0  0  0  0  0  0  0  0  0
  -23.2650   64.8050   24.6290 N   0  0  0  0  0  0  0  0  0  0  0  0
  -22.0160   65.2300   24.7380 N   0  0  0  0  0  0  0  0  0  0  0  0
  -22.0770   66.5650   24.8950 C   0  0  0  0  0  0  0  0  0  0  0  0
  -23.3210   66.9800   24.8870 O   0  0  0  0  0  0  0  0  0  0  0  0
  1  2  1  0  0  0  0
  2  7  1  0  0  0  0
  3  2  2  0  0  0  0
  3  4  1  0  0  0  0
  4  5  2  0  0  0  0
  5  6  1  0  0  0  0
  7  8  1  0  0  0  0
  7  6  2  0  0  0  0
  8 12  1  0  0  0  0
  9  8  2  0  0  0  0
  9 10  1  0  0  0  0
 10 11  2  0  0  0  0
 12 11  1  0  0  0  0
M  END
>  <REMARK>
 VINA RESULT:      -6.5      2.764      4.419
  1 active torsions:
  status: ('A' for Active; 'I' for Inactive)
    1  A    between atoms: C6_7  and  C7_8 

>  <TORSDO>
F 1

$$$$
../pdbqt/decoy.vina_out.4.pdbqt
 OpenBabel06052021513D

 12 13  0  0  0  0  0  0  0  0999 V2000
  -28.9990   65.5190   25.2150 O   0  0  0  0  0  0  0  0  0  0  0  0
  -27.8860   65.0460   25.9020 C   0  0  0  0  0  0  0  0  0  0  0  0
  -28.0800   64.3120   27.0780 C   0  0  0  0  0  0  0  0  0  0  0  0
  -26.9850   63.8230   27.7920 C   0  0  0  0  0  0  0  0  0  0  0  0
  -25.6880   64.0650   27.3340 C   0  0  0  0  0  0  0  0  0  0  0  0
  -25.4840   64.7970   26.1610 C   0  0  0  0  0  0  0  0  0  0  0  0
  -26.5800   65.2960   25.4310 C   0  0  0  0  0  0  0  0  0  0  0  0
  -26.3430   66.0700   24.1900 C   0  0  0  0  0  0  0  0  0  0  0  0
  -25.2840   66.8790   23.9880 N   0  0  0  0  0  0  0  0  0  0  0  0
  -25.4280   67.3850   22.7730 N   0  0  0  0  0  0  0  0  0  0  0  0
  -26.5660   66.8690   22.2750 C   0  0  0  0  0  0  0  0  0  0  0  0
  -27.1310   66.0620   23.1400 O   0  0  0  0  0  0  0  0  0  0  0  0
  1  2  1  0  0  0  0
  2  3  1  0  0  0  0
  3  4  2  0  0  0  0
  5  4  1  0  0  0  0
  6  5  2  0  0  0  0
  7  2  2  0  0  0  0
  7  6  1  0  0  0  0
  8  7  1  0  0  0  0
  9  8  2  0  0  0  0
 10  9  1  0  0  0  0
 11 10  2  0  0  0  0
 11 12  1  0  0  0  0
 12  8  1  0  0  0  0
M  END
>  <REMARK>
 VINA RESULT:      -6.4      2.158      3.395
  1 active torsions:
  status: ('A' for Active; 'I' for Inactive)
    1  A    between atoms: C6_7  and  C7_8 

>  <TORSDO>
F 1

$$$$
../pdbqt/decoy.vina_out.4.pdbqt
 OpenBabel06052021513D

 12 13  0  0  0  0  0  0  0  0999 V2000
  -24.3730   64.9890   25.7280 O   0  0  0  0  0  0  0  0  0  0  0  0
  -25.6620   64.7610   26.1990 C   0  0  0  0  0  0  0  0  0  0  0  0
  -25.8300   64.0100   27.3690 C   0  0  0  0  0  0  0  0  0  0  0  0
  -27.1090   63.7620   27.8700 C   0  0  0  0  0  0  0  0  0  0  0  0
  -28.2290   64.2640   27.2030 C   0  0  0  0  0  0  0  0  0  0  0  0
  -28.0720   65.0150   26.0350 C   0  0  0  0  0  0  0  0  0  0  0  0
  -26.7870   65.2720   25.5180 C   0  0  0  0  0  0  0  0  0  0  0  0
  -26.6410   66.0690   24.2790 C   0  0  0  0  0  0  0  0  0  0  0  0
  -27.4630   65.9790   23.2150 N   0  0  0  0  0  0  0  0  0  0  0  0
  -27.0090   66.8410   22.3180 N   0  0  0  0  0  0  0  0  0  0  0  0
  -25.9280   67.4270   22.8630 C   0  0  0  0  0  0  0  0  0  0  0  0
  -25.6980   66.9580   24.0650 O   0  0  0  0  0  0  0  0  0  0  0  0
  1  2  1  0  0  0  0
  2  3  2  0  0  0  0
  3  4  1  0  0  0  0
  5  4  2  0  0  0  0
  6  5  1  0  0  0  0
  7  6  2  0  0  0  0
  7  2  1  0  0  0  0
  8  7  1  0  0  0  0
  9  8  2  0  0  0  0
 10 11  2  0  0  0  0
 10  9  1  0  0  0  0
 11 12  1  0  0  0  0
 12  8  1  0  0  0  0
M  END
>  <REMARK>
 VINA RESULT:      -6.4      2.107      3.266
  1 active torsions:
  status: ('A' for Active; 'I' for Inactive)
    1  A    between atoms: C6_7  and  C7_8 

>  <TORSDO>
F 1

$$$$
../pdbqt/decoy.vina_out.4.pdbqt
 OpenBabel06052021513D

 12 13  0  0  0  0  0  0  0  0999 V2000
  -28.7220   64.2280   26.6410 O   0  0  0  0  0  0  0  0  0  0  0  0
  -27.4640   64.6840   26.2640 C   0  0  0  0  0  0  0  0  0  0  0  0
  -27.3510   65.4980   25.1310 C   0  0  0  0  0  0  0  0  0  0  0  0
  -26.1030   65.9740   24.7250 C   0  0  0  0  0  0  0  0  0  0  0  0
  -24.9590   65.6370   25.4510 C   0  0  0  0  0  0  0  0  0  0  0  0
  -25.0600   64.8250   26.5840 C   0  0  0  0  0  0  0  0  0  0  0  0
  -26.3130   64.3380   27.0050 C   0  0  0  0  0  0  0  0  0  0  0  0
  -26.4000   63.4790   28.2070 C   0  0  0  0  0  0  0  0  0  0  0  0
  -26.1960   62.1460   28.2070 N   0  0  0  0  0  0  0  0  0  0  0  0
  -26.3610   61.7430   29.4570 N   0  0  0  0  0  0  0  0  0  0  0  0
  -26.6590   62.8390   30.1770 C   0  0  0  0  0  0  0  0  0  0  0  0
  -26.6840   63.9060   29.4160 O   0  0  0  0  0  0  0  0  0  0  0  0
  2  1  1  0  0  0  0
  2  7  2  0  0  0  0
  3  2  1  0  0  0  0
  4  3  2  0  0  0  0
  4  5  1  0  0  0  0
  5  6  2  0  0  0  0
  6  7  1  0  0  0  0
  7  8  1  0  0  0  0
  8  9  2  0  0  0  0
  8 12  1  0  0  0  0
  9 10  1  0  0  0  0
 10 11  2  0  0  0  0
 12 11  1  0  0  0  0
M  END
>  <REMARK>
 VINA RESULT:      -6.3      3.919      5.014
  1 active torsions:
  status: ('A' for Active; 'I' for Inactive)
    1  A    between atoms: C6_7  and  C7_8 

>  <TORSDO>
F 1

$$$$
../pdbqt/decoy.vina_out.4.pdbqt
 OpenBabel06052021513D

 12 13  0  0  0  0  0  0  0  0999 V2000
  -26.3510   64.4420   26.5970 O   0  0  0  0  0  0  0  0  0  0  0  0
  -25.3000   65.1530   26.0270 C   0  0  0  0  0  0  0  0  0  0  0  0
  -24.0330   65.0760   26.6170 C   0  0  0  0  0  0  0  0  0  0  0  0
  -22.9570   65.7770   26.0710 C   0  0  0  0  0  0  0  0  0  0  0  0
  -23.1410   66.5600   24.9300 C   0  0  0  0  0  0  0  0  0  0  0  0
  -24.4020   66.6450   24.3330 C   0  0  0  0  0  0  0  0  0  0  0  0
  -25.4970   65.9430   24.8740 C   0  0  0  0  0  0  0  0  0  0  0  0
  -26.8250   66.0450   24.2270 C   0  0  0  0  0  0  0  0  0  0  0  0
  -27.0600   66.6970   23.0710 N   0  0  0  0  0  0  0  0  0  0  0  0
  -28.3540   66.5640   22.8240 N   0  0  0  0  0  0  0  0  0  0  0  0
  -28.8640   65.8370   23.8340 C   0  0  0  0  0  0  0  0  0  0  0  0
  -27.9310   65.5170   24.6980 O   0  0  0  0  0  0  0  0  0  0  0  0
  2  1  1  0  0  0  0
  2  3  2  0  0  0  0
  4  3  1  0  0  0  0
  5  4  2  0  0  0  0
  6  7  2  0  0  0  0
  6  5  1  0  0  0  0
  7  2  1  0  0  0  0
  8 12  1  0  0  0  0
  8  7  1  0  0  0  0
  9  8  2  0  0  0  0
 10  9  1  0  0  0  0
 10 11  2  0  0  0  0
 11 12  1  0  0  0  0
M  END
>  <REMARK>
 VINA RESULT:      -6.3      1.264      2.070
  1 active torsions:
  status: ('A' for Active; 'I' for Inactive)
    1  A    between atoms: C6_7  and  C7_8 

>  <TORSDO>
F 1

$$$$
../pdbqt/decoy.vina_out.4.pdbqt
 OpenBabel06052021513D

 12 13  0  0  0  0  0  0  0  0999 V2000
  -28.3360   64.5240   26.0970 O   0  0  0  0  0  0  0  0  0  0  0  0
  -27.0520   64.9710   25.8040 C   0  0  0  0  0  0  0  0  0  0  0  0
  -26.8720   65.8550   24.7340 C   0  0  0  0  0  0  0  0  0  0  0  0
  -25.5970   66.3240   24.4120 C   0  0  0  0  0  0  0  0  0  0  0  0
  -24.4930   65.9100   25.1600 C   0  0  0  0  0  0  0  0  0  0  0  0
  -24.6610   65.0270   26.2290 C   0  0  0  0  0  0  0  0  0  0  0  0
  -25.9410   64.5460   26.5650 C   0  0  0  0  0  0  0  0  0  0  0  0
  -26.0990   63.6110   27.7020 C   0  0  0  0  0  0  0  0  0  0  0  0
  -26.6670   63.9350   28.8810 N   0  0  0  0  0  0  0  0  0  0  0  0
  -26.6230   62.8440   29.6290 N   0  0  0  0  0  0  0  0  0  0  0  0
  -26.0310   61.8920   28.8850 C   0  0  0  0  0  0  0  0  0  0  0  0
  -25.7080   62.3570   27.7020 O   0  0  0  0  0  0  0  0  0  0  0  0
  2  1  1  0  0  0  0
  2  7  2  0  0  0  0
  3  2  1  0  0  0  0
  4  3  2  0  0  0  0
  4  5  1  0  0  0  0
  5  6  2  0  0  0  0
  6  7  1  0  0  0  0
  7  8  1  0  0  0  0
  8 12  1  0  0  0  0
  8  9  2  0  0  0  0
  9 10  1  0  0  0  0
 11 10  2  0  0  0  0
 12 11  1  0  0  0  0
M  END
>  <REMARK>
 VINA RESULT:      -6.2      3.503      4.551
  1 active torsions:
  status: ('A' for Active; 'I' for Inactive)
    1  A    between atoms: C6_7  and  C7_8 

>  <TORSDO>
F 1

$$$$
../pdbqt/decoy.vina_out.4.pdbqt
 OpenBabel06052021513D

 12 13  0  0  0  0  0  0  0  0999 V2000
  -24.5910   65.2930   26.5220 O   0  0  0  0  0  0  0  0  0  0  0  0
  -25.4870   65.6240   25.5110 C   0  0  0  0  0  0  0  0  0  0  0  0
  -25.0230   66.3480   24.4070 C   0  0  0  0  0  0  0  0  0  0  0  0
  -25.8960   66.6970   23.3740 C   0  0  0  0  0  0  0  0  0  0  0  0
  -27.2390   66.3230   23.4410 C   0  0  0  0  0  0  0  0  0  0  0  0
  -27.7130   65.6000   24.5390 C   0  0  0  0  0  0  0  0  0  0  0  0
  -26.8440   65.2420   25.5880 C   0  0  0  0  0  0  0  0  0  0  0  0
  -27.3640   64.4760   26.7430 C   0  0  0  0  0  0  0  0  0  0  0  0
  -26.8630   63.2980   27.1630 N   0  0  0  0  0  0  0  0  0  0  0  0
  -27.5890   62.9350   28.2100 N   0  0  0  0  0  0  0  0  0  0  0  0
  -28.5060   63.9010   28.3930 C   0  0  0  0  0  0  0  0  0  0  0  0
  -28.3730   64.8480   27.4970 O   0  0  0  0  0  0  0  0  0  0  0  0
  2  7  1  0  0  0  0
  2  1  1  0  0  0  0
  3  2  2  0  0  0  0
  4  5  2  0  0  0  0
  4  3  1  0  0  0  0
  5  6  1  0  0  0  0
  6  7  2  0  0  0  0
  7  8  1  0  0  0  0
  8  9  2  0  0  0  0
  8 12  1  0  0  0  0
  9 10  1  0  0  0  0
 10 11  2  0  0  0  0
 12 11  1  0  0  0  0
M  END
>  <REMARK>
 VINA RESULT:      -6.1      3.099      3.753
  1 active torsions:
  status: ('A' for Active; 'I' for Inactive)
    1  A    between atoms: C6_7  and  C7_8 

>  <TORSDO>
F 1

$$$$
