../pdbqt/decoy.vina_out.29.pdbqt
 OpenBabel06052021513D

 19 22  0  0  0  0  0  0  0  0999 V2000
  -26.0490   64.5040   26.5680 N   0  0  0  0  0  0  0  0  0  0  0  0
  -24.9600   65.1910   26.1400 C   0  0  0  0  0  0  0  0  0  0  0  0
  -23.6680   65.1790   26.6760 C   0  0  0  0  0  0  0  0  0  0  0  0
  -22.6830   65.9650   26.0500 C   0  0  0  0  0  0  0  0  0  0  0  0
  -22.9970   66.7350   24.9080 C   0  0  0  0  0  0  0  0  0  0  0  0
  -24.2980   66.7240   24.3750 C   0  0  0  0  0  0  0  0  0  0  0  0
  -25.2540   65.9370   25.0150 C   0  0  0  0  0  0  0  0  0  0  0  0
  -26.5820   65.7050   24.7310 C   0  0  0  0  0  0  0  0  0  0  0  0
  -27.4100   66.1990   23.7250 C   0  0  0  0  0  0  0  0  0  0  0  0
  -28.7510   65.7790   23.7180 C   0  0  0  0  0  0  0  0  0  0  0  0
  -29.2310   64.8930   24.7080 C   0  0  0  0  0  0  0  0  0  0  0  0
  -28.3730   64.4100   25.7130 C   0  0  0  0  0  0  0  0  0  0  0  0
  -27.0380   64.8270   25.6950 C   0  0  0  0  0  0  0  0  0  0  0  0
  -26.1380   63.6230   27.7000 C   0  0  0  0  0  0  0  0  0  0  0  0
  -25.4380   62.4050   27.7040 C   0  0  0  0  0  0  0  0  0  0  0  0
  -25.5250   61.5480   28.8050 C   0  0  0  0  0  0  0  0  0  0  0  0
  -26.3080   61.9010   29.9070 C   0  0  0  0  0  0  0  0  0  0  0  0
  -27.0070   63.1110   29.9100 C   0  0  0  0  0  0  0  0  0  0  0  0
  -26.9230   63.9700   28.8100 C   0  0  0  0  0  0  0  0  0  0  0  0
  1 14  1  0  0  0  0
  2  1  1  0  0  0  0
  2  3  1  0  0  0  0
  4  3  2  0  0  0  0
  5  4  1  0  0  0  0
  6  5  2  0  0  0  0
  6  7  1  0  0  0  0
  7  2  2  0  0  0  0
  8  7  1  0  0  0  0
  8 13  2  0  0  0  0
  9  8  1  0  0  0  0
 10  9  2  0  0  0  0
 10 11  1  0  0  0  0
 11 12  2  0  0  0  0
 13 12  1  0  0  0  0
 13  1  1  0  0  0  0
 14 15  2  0  0  0  0
 14 19  1  0  0  0  0
 15 16  1  0  0  0  0
 16 17  2  0  0  0  0
 17 18  1  0  0  0  0
 19 18  2  0  0  0  0
M  END
>  <MODEL>
1

>  <REMARK>
 VINA RESULT:      -9.8      0.000      0.000
  1 active torsions:
  status: ('A' for Active; 'I' for Inactive)
    1  A    between atoms: C4_4  and  N1_5 

>  <TORSDO>
F 1

$$$$
../pdbqt/decoy.vina_out.29.pdbqt
 OpenBabel06052021513D

 19 22  0  0  0  0  0  0  0  0999 V2000
  -26.0440   64.5020   26.5760 N   0  0  0  0  0  0  0  0  0  0  0  0
  -27.0330   64.8240   25.7060 C   0  0  0  0  0  0  0  0  0  0  0  0
  -28.3680   64.4060   25.7260 C   0  0  0  0  0  0  0  0  0  0  0  0
  -29.2290   64.8870   24.7210 C   0  0  0  0  0  0  0  0  0  0  0  0
  -28.7520   65.7720   23.7290 C   0  0  0  0  0  0  0  0  0  0  0  0
  -27.4100   66.1920   23.7340 C   0  0  0  0  0  0  0  0  0  0  0  0
  -26.5790   65.7010   24.7390 C   0  0  0  0  0  0  0  0  0  0  0  0
  -25.2520   65.9340   25.0190 C   0  0  0  0  0  0  0  0  0  0  0  0
  -24.2970   66.7190   24.3760 C   0  0  0  0  0  0  0  0  0  0  0  0
  -22.9960   66.7320   24.9070 C   0  0  0  0  0  0  0  0  0  0  0  0
  -22.6790   65.9630   26.0490 C   0  0  0  0  0  0  0  0  0  0  0  0
  -23.6620   65.1780   26.6780 C   0  0  0  0  0  0  0  0  0  0  0  0
  -24.9550   65.1900   26.1450 C   0  0  0  0  0  0  0  0  0  0  0  0
  -26.1290   63.6240   27.7110 C   0  0  0  0  0  0  0  0  0  0  0  0
  -25.4330   62.4040   27.7150 C   0  0  0  0  0  0  0  0  0  0  0  0
  -25.5160   61.5510   28.8180 C   0  0  0  0  0  0  0  0  0  0  0  0
  -26.2930   61.9090   29.9240 C   0  0  0  0  0  0  0  0  0  0  0  0
  -26.9870   63.1220   29.9270 C   0  0  0  0  0  0  0  0  0  0  0  0
  -26.9070   63.9780   28.8240 C   0  0  0  0  0  0  0  0  0  0  0  0
  1 14  1  0  0  0  0
  2  3  1  0  0  0  0
  2  1  1  0  0  0  0
  4  3  2  0  0  0  0
  5  6  2  0  0  0  0
  5  4  1  0  0  0  0
  6  7  1  0  0  0  0
  7  8  1  0  0  0  0
  7  2  2  0  0  0  0
  8 13  2  0  0  0  0
  9 10  2  0  0  0  0
  9  8  1  0  0  0  0
 10 11  1  0  0  0  0
 11 12  2  0  0  0  0
 13  1  1  0  0  0  0
 13 12  1  0  0  0  0
 14 15  2  0  0  0  0
 14 19  1  0  0  0  0
 15 16  1  0  0  0  0
 16 17  2  0  0  0  0
 17 18  1  0  0  0  0
 19 18  2  0  0  0  0
M  END
>  <REMARK>
 VINA RESULT:      -9.8      0.014      3.581
  1 active torsions:
  status: ('A' for Active; 'I' for Inactive)
    1  A    between atoms: C4_4  and  N1_5 

>  <TORSDO>
F 1

$$$$
../pdbqt/decoy.vina_out.29.pdbqt
 OpenBabel06052021513D

 19 22  0  0  0  0  0  0  0  0999 V2000
  -24.9940   64.7880   25.7900 N   0  0  0  0  0  0  0  0  0  0  0  0
  -25.6110   63.9570   26.6670 C   0  0  0  0  0  0  0  0  0  0  0  0
  -25.0250   63.0380   27.5430 C   0  0  0  0  0  0  0  0  0  0  0  0
  -25.8700   62.2880   28.3810 C   0  0  0  0  0  0  0  0  0  0  0  0
  -27.2700   62.4710   28.3390 C   0  0  0  0  0  0  0  0  0  0  0  0
  -27.8410   63.4090   27.4610 C   0  0  0  0  0  0  0  0  0  0  0  0
  -26.9810   64.1380   26.6420 C   0  0  0  0  0  0  0  0  0  0  0  0
  -27.2260   65.1220   25.7100 C   0  0  0  0  0  0  0  0  0  0  0  0
  -28.4140   65.6960   25.2660 C   0  0  0  0  0  0  0  0  0  0  0  0
  -28.3310   66.6830   24.2690 C   0  0  0  0  0  0  0  0  0  0  0  0
  -27.0780   67.0650   23.7400 C   0  0  0  0  0  0  0  0  0  0  0  0
  -25.8930   66.4680   24.2070 C   0  0  0  0  0  0  0  0  0  0  0  0
  -25.9940   65.4990   25.2090 C   0  0  0  0  0  0  0  0  0  0  0  0
  -23.5840   64.8950   25.5320 C   0  0  0  0  0  0  0  0  0  0  0  0
  -22.9470   63.9700   24.6890 C   0  0  0  0  0  0  0  0  0  0  0  0
  -21.5750   64.0750   24.4380 C   0  0  0  0  0  0  0  0  0  0  0  0
  -20.8320   65.1020   25.0270 C   0  0  0  0  0  0  0  0  0  0  0  0
  -21.4600   66.0260   25.8680 C   0  0  0  0  0  0  0  0  0  0  0  0
  -22.8310   65.9230   26.1210 C   0  0  0  0  0  0  0  0  0  0  0  0
  1  2  1  0  0  0  0
  2  3  1  0  0  0  0
  3  4  2  0  0  0  0
  5  4  1  0  0  0  0
  6  5  2  0  0  0  0
  7  2  2  0  0  0  0
  7  6  1  0  0  0  0
  8  7  1  0  0  0  0
  9  8  1  0  0  0  0
 10  9  2  0  0  0  0
 11 12  2  0  0  0  0
 11 10  1  0  0  0  0
 12 13  1  0  0  0  0
 13  8  2  0  0  0  0
 13  1  1  0  0  0  0
 14  1  1  0  0  0  0
 14 19  2  0  0  0  0
 15 14  1  0  0  0  0
 16 15  2  0  0  0  0
 16 17  1  0  0  0  0
 17 18  2  0  0  0  0
 18 19  1  0  0  0  0
M  END
>  <REMARK>
 VINA RESULT:      -9.5      1.429      4.477
  1 active torsions:
  status: ('A' for Active; 'I' for Inactive)
    1  A    between atoms: C4_4  and  N1_5 

>  <TORSDO>
F 1

$$$$
../pdbqt/decoy.vina_out.29.pdbqt
 OpenBabel06052021513D

 19 22  0  0  0  0  0  0  0  0999 V2000
  -25.0210   64.7030   25.8510 N   0  0  0  0  0  0  0  0  0  0  0  0
  -26.0510   65.3960   25.3030 C   0  0  0  0  0  0  0  0  0  0  0  0
  -25.9970   66.3700   24.3000 C   0  0  0  0  0  0  0  0  0  0  0  0
  -27.2060   66.9480   23.8720 C   0  0  0  0  0  0  0  0  0  0  0  0
  -28.4360   66.5450   24.4380 C   0  0  0  0  0  0  0  0  0  0  0  0
  -28.4710   65.5550   25.4360 C   0  0  0  0  0  0  0  0  0  0  0  0
  -27.2600   65.0000   25.8420 C   0  0  0  0  0  0  0  0  0  0  0  0
  -26.9700   64.0180   26.7630 C   0  0  0  0  0  0  0  0  0  0  0  0
  -27.7920   63.2750   27.6080 C   0  0  0  0  0  0  0  0  0  0  0  0
  -27.1790   62.3450   28.4650 C   0  0  0  0  0  0  0  0  0  0  0  0
  -25.7750   62.1860   28.4640 C   0  0  0  0  0  0  0  0  0  0  0  0
  -24.9690   62.9500   27.6010 C   0  0  0  0  0  0  0  0  0  0  0  0
  -25.5980   63.8590   26.7450 C   0  0  0  0  0  0  0  0  0  0  0  0
  -23.6220   64.8310   25.5490 C   0  0  0  0  0  0  0  0  0  0  0  0
  -23.0070   63.9400   24.6550 C   0  0  0  0  0  0  0  0  0  0  0  0
  -21.6460   64.0640   24.3610 C   0  0  0  0  0  0  0  0  0  0  0  0
  -20.8920   65.0790   24.9570 C   0  0  0  0  0  0  0  0  0  0  0  0
  -21.4970   65.9690   25.8480 C   0  0  0  0  0  0  0  0  0  0  0  0
  -22.8580   65.8470   26.1440 C   0  0  0  0  0  0  0  0  0  0  0  0
  1 13  1  0  0  0  0
  2  7  2  0  0  0  0
  2  1  1  0  0  0  0
  3  2  1  0  0  0  0
  4  3  2  0  0  0  0
  4  5  1  0  0  0  0
  5  6  2  0  0  0  0
  6  7  1  0  0  0  0
  7  8  1  0  0  0  0
  8  9  1  0  0  0  0
  9 10  2  0  0  0  0
 11 10  1  0  0  0  0
 12 11  2  0  0  0  0
 13  8  2  0  0  0  0
 13 12  1  0  0  0  0
 14  1  1  0  0  0  0
 14 19  2  0  0  0  0
 15 14  1  0  0  0  0
 16 15  2  0  0  0  0
 16 17  1  0  0  0  0
 17 18  2  0  0  0  0
 18 19  1  0  0  0  0
M  END
>  <REMARK>
 VINA RESULT:      -9.5      1.410      4.797
  1 active torsions:
  status: ('A' for Active; 'I' for Inactive)
    1  A    between atoms: C4_4  and  N1_5 

>  <TORSDO>
F 1

$$$$
../pdbqt/decoy.vina_out.29.pdbqt
 OpenBabel06052021513D

 19 22  0  0  0  0  0  0  0  0999 V2000
  -24.0260   63.7700   26.4740 N   0  0  0  0  0  0  0  0  0  0  0  0
  -24.9750   63.1560   27.2230 C   0  0  0  0  0  0  0  0  0  0  0  0
  -24.8040   62.1370   28.1660 C   0  0  0  0  0  0  0  0  0  0  0  0
  -25.9430   61.6610   28.8420 C   0  0  0  0  0  0  0  0  0  0  0  0
  -27.2180   62.2080   28.5760 C   0  0  0  0  0  0  0  0  0  0  0  0
  -27.3680   63.2410   27.6350 C   0  0  0  0  0  0  0  0  0  0  0  0
  -26.2250   63.6940   26.9800 C   0  0  0  0  0  0  0  0  0  0  0  0
  -26.0450   64.6830   26.0390 C   0  0  0  0  0  0  0  0  0  0  0  0
  -26.9500   65.5410   25.4180 C   0  0  0  0  0  0  0  0  0  0  0  0
  -26.4470   66.4450   24.4660 C   0  0  0  0  0  0  0  0  0  0  0  0
  -25.0690   66.4660   24.1550 C   0  0  0  0  0  0  0  0  0  0  0  0
  -24.1770   65.5880   24.7970 C   0  0  0  0  0  0  0  0  0  0  0  0
  -24.6940   64.7060   25.7520 C   0  0  0  0  0  0  0  0  0  0  0  0
  -22.6160   63.4920   26.4510 C   0  0  0  0  0  0  0  0  0  0  0  0
  -21.7520   64.1410   27.3480 C   0  0  0  0  0  0  0  0  0  0  0  0
  -20.3810   63.8700   27.3250 C   0  0  0  0  0  0  0  0  0  0  0  0
  -19.8640   62.9510   26.4070 C   0  0  0  0  0  0  0  0  0  0  0  0
  -20.7180   62.3020   25.5110 C   0  0  0  0  0  0  0  0  0  0  0  0
  -22.0890   62.5710   25.5320 C   0  0  0  0  0  0  0  0  0  0  0  0
  1  2  1  0  0  0  0
  2  3  1  0  0  0  0
  3  4  2  0  0  0  0
  5  4  1  0  0  0  0
  6  5  2  0  0  0  0
  7  2  2  0  0  0  0
  7  6  1  0  0  0  0
  8  7  1  0  0  0  0
  9  8  2  0  0  0  0
 10  9  1  0  0  0  0
 11 10  2  0  0  0  0
 11 12  1  0  0  0  0
 12 13  2  0  0  0  0
 13  8  1  0  0  0  0
 13  1  1  0  0  0  0
 14  1  1  0  0  0  0
 14 15  2  0  0  0  0
 16 15  1  0  0  0  0
 17 16  2  0  0  0  0
 18 19  2  0  0  0  0
 18 17  1  0  0  0  0
 19 14  1  0  0  0  0
M  END
>  <REMARK>
 VINA RESULT:      -9.4      2.078      4.741
  1 active torsions:
  status: ('A' for Active; 'I' for Inactive)
    1  A    between atoms: C4_4  and  N1_5 

>  <TORSDO>
F 1

$$$$
../pdbqt/decoy.vina_out.29.pdbqt
 OpenBabel06052021513D

 19 22  0  0  0  0  0  0  0  0999 V2000
  -25.6590   64.3980   26.0920 N   0  0  0  0  0  0  0  0  0  0  0  0
  -25.9430   63.5300   27.0950 C   0  0  0  0  0  0  0  0  0  0  0  0
  -27.1870   63.2590   27.6750 C   0  0  0  0  0  0  0  0  0  0  0  0
  -27.2460   62.2970   28.7000 C   0  0  0  0  0  0  0  0  0  0  0  0
  -26.0780   61.6220   29.1190 C   0  0  0  0  0  0  0  0  0  0  0  0
  -24.8390   61.8970   28.5160 C   0  0  0  0  0  0  0  0  0  0  0  0
  -24.8090   62.8550   27.5040 C   0  0  0  0  0  0  0  0  0  0  0  0
  -23.7760   63.3230   26.7230 C   0  0  0  0  0  0  0  0  0  0  0  0
  -22.4190   63.0100   26.7040 C   0  0  0  0  0  0  0  0  0  0  0  0
  -21.6030   63.6900   25.7830 C   0  0  0  0  0  0  0  0  0  0  0  0
  -22.1540   64.6630   24.9190 C   0  0  0  0  0  0  0  0  0  0  0  0
  -23.5280   64.9600   24.9600 C   0  0  0  0  0  0  0  0  0  0  0  0
  -24.3260   64.2620   25.8720 C   0  0  0  0  0  0  0  0  0  0  0  0
  -26.5720   65.2730   25.4090 C   0  0  0  0  0  0  0  0  0  0  0  0
  -27.9550   65.1640   25.6290 C   0  0  0  0  0  0  0  0  0  0  0  0
  -28.8420   66.0150   24.9640 C   0  0  0  0  0  0  0  0  0  0  0  0
  -28.3560   66.9780   24.0760 C   0  0  0  0  0  0  0  0  0  0  0  0
  -26.9810   67.0920   23.8520 C   0  0  0  0  0  0  0  0  0  0  0  0
  -26.0910   66.2420   24.5150 C   0  0  0  0  0  0  0  0  0  0  0  0
  1  2  1  0  0  0  0
  2  7  2  0  0  0  0
  2  3  1  0  0  0  0
  3  4  2  0  0  0  0
  4  5  1  0  0  0  0
  6  5  2  0  0  0  0
  7  6  1  0  0  0  0
  8  7  1  0  0  0  0
  9  8  1  0  0  0  0
 10  9  2  0  0  0  0
 11 12  2  0  0  0  0
 11 10  1  0  0  0  0
 12 13  1  0  0  0  0
 13  1  1  0  0  0  0
 13  8  2  0  0  0  0
 14 15  1  0  0  0  0
 14  1  1  0  0  0  0
 16 15  2  0  0  0  0
 17 16  1  0  0  0  0
 18 17  2  0  0  0  0
 18 19  1  0  0  0  0
 19 14  2  0  0  0  0
M  END
>  <REMARK>
 VINA RESULT:      -8.4      1.367      5.571
  1 active torsions:
  status: ('A' for Active; 'I' for Inactive)
    1  A    between atoms: C4_4  and  N1_5 

>  <TORSDO>
F 1

$$$$
../pdbqt/decoy.vina_out.29.pdbqt
 OpenBabel06052021513D

 19 22  0  0  0  0  0  0  0  0999 V2000
  -22.5490   65.2010   24.9690 N   0  0  0  0  0  0  0  0  0  0  0  0
  -21.8400   64.2690   24.2840 C   0  0  0  0  0  0  0  0  0  0  0  0
  -22.3020   63.0700   23.7320 C   0  0  0  0  0  0  0  0  0  0  0  0
  -21.3810   62.2590   23.0420 C   0  0  0  0  0  0  0  0  0  0  0  0
  -20.0330   62.6570   22.9090 C   0  0  0  0  0  0  0  0  0  0  0  0
  -19.5900   63.8730   23.4590 C   0  0  0  0  0  0  0  0  0  0  0  0
  -20.5220   64.6560   24.1370 C   0  0  0  0  0  0  0  0  0  0  0  0
  -20.4060   65.8800   24.7570 C   0  0  0  0  0  0  0  0  0  0  0  0
  -19.3130   66.7270   24.9280 C   0  0  0  0  0  0  0  0  0  0  0  0
  -19.5160   67.9220   25.6390 C   0  0  0  0  0  0  0  0  0  0  0  0
  -20.7900   68.2370   26.1630 C   0  0  0  0  0  0  0  0  0  0  0  0
  -21.8760   67.3630   25.9760 C   0  0  0  0  0  0  0  0  0  0  0  0
  -21.6580   66.1860   25.2530 C   0  0  0  0  0  0  0  0  0  0  0  0
  -23.9430   65.1580   25.3170 C   0  0  0  0  0  0  0  0  0  0  0  0
  -24.8880   65.8450   24.5380 C   0  0  0  0  0  0  0  0  0  0  0  0
  -26.2430   65.8030   24.8780 C   0  0  0  0  0  0  0  0  0  0  0  0
  -26.6630   65.0760   25.9950 C   0  0  0  0  0  0  0  0  0  0  0  0
  -25.7280   64.3900   26.7750 C   0  0  0  0  0  0  0  0  0  0  0  0
  -24.3710   64.4310   26.4390 C   0  0  0  0  0  0  0  0  0  0  0  0
  1 13  1  0  0  0  0
  1 14  1  0  0  0  0
  2  1  1  0  0  0  0
  3  2  2  0  0  0  0
  4  3  1  0  0  0  0
  5  4  2  0  0  0  0
  5  6  1  0  0  0  0
  6  7  2  0  0  0  0
  7  2  1  0  0  0  0
  7  8  1  0  0  0  0
  8  9  2  0  0  0  0
  8 13  1  0  0  0  0
  9 10  1  0  0  0  0
 10 11  2  0  0  0  0
 12 11  1  0  0  0  0
 13 12  2  0  0  0  0
 14 19  2  0  0  0  0
 15 16  2  0  0  0  0
 15 14  1  0  0  0  0
 16 17  1  0  0  0  0
 17 18  2  0  0  0  0
 19 18  1  0  0  0  0
M  END
>  <REMARK>
 VINA RESULT:      -7.9      3.002      5.802
  1 active torsions:
  status: ('A' for Active; 'I' for Inactive)
    1  A    between atoms: C4_4  and  N1_5 

>  <TORSDO>
F 1

$$$$
../pdbqt/decoy.vina_out.29.pdbqt
 OpenBabel06052021513D

 19 22  0  0  0  0  0  0  0  0999 V2000
  -22.4470   64.8530   25.2830 N   0  0  0  0  0  0  0  0  0  0  0  0
  -21.6280   65.8940   25.5730 C   0  0  0  0  0  0  0  0  0  0  0  0
  -21.8330   66.9180   26.5050 C   0  0  0  0  0  0  0  0  0  0  0  0
  -20.8290   67.8930   26.6500 C   0  0  0  0  0  0  0  0  0  0  0  0
  -19.6470   67.8280   25.8800 C   0  0  0  0  0  0  0  0  0  0  0  0
  -19.4530   66.7840   24.9580 C   0  0  0  0  0  0  0  0  0  0  0  0
  -20.4630   65.8320   24.8330 C   0  0  0  0  0  0  0  0  0  0  0  0
  -20.5610   64.7050   24.0490 C   0  0  0  0  0  0  0  0  0  0  0  0
  -19.6930   64.1580   23.1070 C   0  0  0  0  0  0  0  0  0  0  0  0
  -20.0980   62.9850   22.4470 C   0  0  0  0  0  0  0  0  0  0  0  0
  -21.3500   62.3970   22.7330 C   0  0  0  0  0  0  0  0  0  0  0  0
  -22.2080   62.9700   23.6890 C   0  0  0  0  0  0  0  0  0  0  0  0
  -21.7810   64.1280   24.3470 C   0  0  0  0  0  0  0  0  0  0  0  0
  -23.7390   64.5730   25.8460 C   0  0  0  0  0  0  0  0  0  0  0  0
  -23.8990   63.5240   26.7650 C   0  0  0  0  0  0  0  0  0  0  0  0
  -25.1560   63.2520   27.3120 C   0  0  0  0  0  0  0  0  0  0  0  0
  -26.2610   64.0260   26.9460 C   0  0  0  0  0  0  0  0  0  0  0  0
  -26.1100   65.0720   26.0310 C   0  0  0  0  0  0  0  0  0  0  0  0
  -24.8540   65.3450   25.4820 C   0  0  0  0  0  0  0  0  0  0  0  0
  1  2  1  0  0  0  0
  1 14  1  0  0  0  0
  2  3  2  0  0  0  0
  3  4  1  0  0  0  0
  5  4  2  0  0  0  0
  6  5  1  0  0  0  0
  7  6  2  0  0  0  0
  7  2  1  0  0  0  0
  8 13  1  0  0  0  0
  8  7  1  0  0  0  0
  9  8  2  0  0  0  0
 10 11  2  0  0  0  0
 10  9  1  0  0  0  0
 11 12  1  0  0  0  0
 12 13  2  0  0  0  0
 13  1  1  0  0  0  0
 14 15  1  0  0  0  0
 15 16  2  0  0  0  0
 17 16  1  0  0  0  0
 18 17  2  0  0  0  0
 19 14  2  0  0  0  0
 19 18  1  0  0  0  0
M  END
>  <REMARK>
 VINA RESULT:      -7.8      2.998      5.147
  1 active torsions:
  status: ('A' for Active; 'I' for Inactive)
    1  A    between atoms: C4_4  and  N1_5 

>  <TORSDO>
F 1

$$$$
../pdbqt/decoy.vina_out.29.pdbqt
 OpenBabel06052021513D

 19 22  0  0  0  0  0  0  0  0999 V2000
  -22.3590   64.5000   25.5720 N   0  0  0  0  0  0  0  0  0  0  0  0
  -21.7330   63.9330   24.5100 C   0  0  0  0  0  0  0  0  0  0  0  0
  -22.1390   62.8250   23.7600 C   0  0  0  0  0  0  0  0  0  0  0  0
  -21.3320   62.4220   22.6810 C   0  0  0  0  0  0  0  0  0  0  0  0
  -20.1500   63.1280   22.3650 C   0  0  0  0  0  0  0  0  0  0  0  0
  -19.7640   64.2480   23.1220 C   0  0  0  0  0  0  0  0  0  0  0  0
  -20.5820   64.6250   24.1850 C   0  0  0  0  0  0  0  0  0  0  0  0
  -20.4880   65.6650   25.0830 C   0  0  0  0  0  0  0  0  0  0  0  0
  -19.5330   66.6680   25.2350 C   0  0  0  0  0  0  0  0  0  0  0  0
  -19.7130   67.5890   26.2820 C   0  0  0  0  0  0  0  0  0  0  0  0
  -20.8250   67.4830   27.1470 C   0  0  0  0  0  0  0  0  0  0  0  0
  -21.7740   66.4600   26.9710 C   0  0  0  0  0  0  0  0  0  0  0  0
  -21.5860   65.5630   25.9140 C   0  0  0  0  0  0  0  0  0  0  0  0
  -23.5790   64.0700   26.1990 C   0  0  0  0  0  0  0  0  0  0  0  0
  -24.7750   64.7680   25.9710 C   0  0  0  0  0  0  0  0  0  0  0  0
  -25.9610   64.3490   26.5810 C   0  0  0  0  0  0  0  0  0  0  0  0
  -25.9600   63.2320   27.4210 C   0  0  0  0  0  0  0  0  0  0  0  0
  -24.7730   62.5320   27.6530 C   0  0  0  0  0  0  0  0  0  0  0  0
  -23.5850   62.9490   27.0450 C   0  0  0  0  0  0  0  0  0  0  0  0
  1 13  1  0  0  0  0
  1 14  1  0  0  0  0
  2  1  1  0  0  0  0
  3  2  2  0  0  0  0
  4  3  1  0  0  0  0
  5  4  2  0  0  0  0
  5  6  1  0  0  0  0
  6  7  2  0  0  0  0
  7  2  1  0  0  0  0
  7  8  1  0  0  0  0
  8  9  2  0  0  0  0
  8 13  1  0  0  0  0
  9 10  1  0  0  0  0
 10 11  2  0  0  0  0
 12 11  1  0  0  0  0
 13 12  2  0  0  0  0
 14 19  1  0  0  0  0
 15 14  2  0  0  0  0
 15 16  1  0  0  0  0
 16 17  2  0  0  0  0
 17 18  1  0  0  0  0
 19 18  2  0  0  0  0
M  END
>  <REMARK>
 VINA RESULT:      -7.7      2.968      5.490
  1 active torsions:
  status: ('A' for Active; 'I' for Inactive)
    1  A    between atoms: C4_4  and  N1_5 

>  <TORSDO>
F 1

$$$$
