../pdbqt/decoy.vina_out.35.pdbqt
 OpenBabel06052021513D

 30 31  0  0  1  0  0  0  0  0999 V2000
  -21.0690   66.9490   26.6510 C   0  0  2  0  0  0  0  0  0  0  0  0
  -22.2780   66.4060   27.1320 O   0  0  0  0  0  0  0  0  0  0  0  0
  -22.6340   65.2990   26.3180 C   0  0  1  0  0  0  0  0  0  0  0  0
  -21.5810   65.1860   25.1880 C   0  0  1  0  0  0  0  0  0  0  0  0
  -20.4030   65.9290   25.7420 C   0  0  1  0  0  0  0  0  0  0  0  0
  -22.6650   64.0550   27.2380 C   0  0  0  0  0  0  0  0  0  0  0  0
  -21.7860   64.2350   28.3450 O   0  0  0  0  0  0  0  0  0  0  0  0
  -20.8320   63.2890   28.7200 C   0  0  0  0  0  0  0  0  0  0  0  0
  -20.8670   62.7210   30.0980 C   0  0  0  0  0  0  0  0  0  0  0  0
  -19.9180   62.9420   27.9220 O   0  0  0  0  0  0  0  0  0  0  0  0
  -24.0260   65.5100   25.7190 C   0  0  0  0  0  0  0  0  0  0  0  0
  -24.1820   66.2770   24.5470 C   0  0  0  0  0  0  0  0  0  0  0  0
  -25.4470   66.4860   23.9920 C   0  0  0  0  0  0  0  0  0  0  0  0
  -26.5830   65.9290   24.5910 C   0  0  0  0  0  0  0  0  0  0  0  0
  -27.9380   66.1810   23.9980 C   0  0  0  0  0  0  0  0  0  0  0  0
  -26.4440   65.1730   25.7630 C   0  0  0  0  0  0  0  0  0  0  0  0
  -25.1790   64.9630   26.3200 C   0  0  0  0  0  0  0  0  0  0  0  0
  -21.2240   63.8310   24.8950 O   0  0  0  0  0  0  0  0  0  0  0  0
  -21.4390   63.2120   23.6590 C   0  0  0  0  0  0  0  0  0  0  0  0
  -20.2980   63.0510   22.7150 C   0  0  0  0  0  0  0  0  0  0  0  0
  -22.5890   62.8250   23.3160 O   0  0  0  0  0  0  0  0  0  0  0  0
  -20.1720   67.3400   27.8290 C   0  0  0  0  0  0  0  0  0  0  0  0
  -19.7650   68.6980   27.6940 O   0  0  0  0  0  0  0  0  0  0  0  0
  -18.6330   69.0790   26.9700 C   0  0  0  0  0  0  0  0  0  0  0  0
  -17.2790   68.7310   27.4860 C   0  0  0  0  0  0  0  0  0  0  0  0
  -18.7450   69.7150   25.8860 O   0  0  0  0  0  0  0  0  0  0  0  0
  -19.6720   66.5770   24.6980 O   0  0  0  0  0  0  0  0  0  0  0  0
  -18.3060   66.3810   24.4630 C   0  0  0  0  0  0  0  0  0  0  0  0
  -17.5910   65.2890   25.1800 C   0  0  0  0  0  0  0  0  0  0  0  0
  -17.6660   67.1360   23.6800 O   0  0  0  0  0  0  0  0  0  0  0  0
  1  2  1  0  0  0  0
  1 22  1  1  0  0  0
  3  2  1  0  0  0  0
  3  6  1  1  0  0  0
  4  5  1  0  0  0  0
  4  3  1  1  0  0  0
  5 27  1  6  0  0  0
  5  1  1  0  0  0  0
  6  7  1  0  0  0  0
  7  8  1  0  0  0  0
  8  9  1  0  0  0  0
 10  8  2  0  0  0  0
 11  3  1  0  0  0  0
 11 17  2  0  0  0  0
 12 11  1  0  0  0  0
 13 12  2  0  0  0  0
 13 14  1  0  0  0  0
 14 16  2  0  0  0  0
 15 14  1  0  0  0  0
 16 17  1  0  0  0  0
 18  4  1  0  0  0  0
 19 18  1  0  0  0  0
 20 19  1  0  0  0  0
 21 19  2  0  0  0  0
 23 22  1  0  0  0  0
 24 25  1  0  0  0  0
 24 23  1  0  0  0  0
 26 24  2  0  0  0  0
 28 27  1  0  0  0  0
 28 29  1  0  0  0  0
 30 28  2  0  0  0  0
M  END
>  <MODEL>
1

>  <REMARK>
 VINA RESULT:      -7.7      0.000      0.000
  11 active torsions:
  status: ('A' for Active; 'I' for Inactive)
    1  A    between atoms: C2_2  and  O2_4 
    2  A    between atoms: O2_4  and  C3_5 
    3  A    between atoms: C3_5  and  C4_6 
    4  A    between atoms: C5_8  and  C6_9 
    5  A    between atoms: C5_8  and  C9_14 
    6  A    between atoms: C6_9  and  O4_10 
    7  A    between atoms: O4_10  and  C7_11 
    8  A    between atoms: C16_21  and  O6_22 
    9  A    between atoms: O6_22  and  C17_23 
   10  A    between atoms: C19_26  and  O8_27 
   11  A    between atoms: O8_27  and  C20_28 

>  <TORSDO>
F 11

$$$$
../pdbqt/decoy.vina_out.35.pdbqt
 OpenBabel06052021513D

 30 31  0  0  1  0  0  0  0  0999 V2000
  -20.1690   65.3550   24.0030 C   0  0  2  0  0  0  0  0  0  0  0  0
  -21.1360   66.3230   24.3430 O   0  0  0  0  0  0  0  0  0  0  0  0
  -21.6470   66.0200   25.6320 C   0  0  1  0  0  0  0  0  0  0  0  0
  -20.9810   64.7050   26.1080 C   0  0  1  0  0  0  0  0  0  0  0  0
  -19.7430   64.6250   25.2660 C   0  0  1  0  0  0  0  0  0  0  0  0
  -21.3140   67.2260   26.5440 C   0  0  0  0  0  0  0  0  0  0  0  0
  -20.6670   68.2500   25.7940 O   0  0  0  0  0  0  0  0  0  0  0  0
  -19.3640   68.6760   26.0570 C   0  0  0  0  0  0  0  0  0  0  0  0
  -18.4290   67.7690   26.7810 C   0  0  0  0  0  0  0  0  0  0  0  0
  -18.9860   69.8340   25.7270 O   0  0  0  0  0  0  0  0  0  0  0  0
  -23.1660   65.8470   25.5720 C   0  0  0  0  0  0  0  0  0  0  0  0
  -23.8240   65.0400   26.5230 C   0  0  0  0  0  0  0  0  0  0  0  0
  -25.2090   64.8640   26.4760 C   0  0  0  0  0  0  0  0  0  0  0  0
  -25.9690   65.4950   25.4850 C   0  0  0  0  0  0  0  0  0  0  0  0
  -27.4530   65.2790   25.4320 C   0  0  0  0  0  0  0  0  0  0  0  0
  -25.3270   66.2910   24.5270 C   0  0  0  0  0  0  0  0  0  0  0  0
  -23.9410   66.4680   24.5700 C   0  0  0  0  0  0  0  0  0  0  0  0
  -20.6400   64.7250   27.4980 O   0  0  0  0  0  0  0  0  0  0  0  0
  -20.6090   63.5910   28.3150 C   0  0  0  0  0  0  0  0  0  0  0  0
  -21.8030   63.2510   29.1380 C   0  0  0  0  0  0  0  0  0  0  0  0
  -19.5740   62.8750   28.3950 O   0  0  0  0  0  0  0  0  0  0  0  0
  -18.9860   66.0300   23.3030 C   0  0  0  0  0  0  0  0  0  0  0  0
  -18.7610   65.4170   22.0380 O   0  0  0  0  0  0  0  0  0  0  0  0
  -17.6340   64.6390   21.7640 C   0  0  0  0  0  0  0  0  0  0  0  0
  -17.0240   64.6830   20.4050 C   0  0  0  0  0  0  0  0  0  0  0  0
  -17.1270   63.9020   22.6530 O   0  0  0  0  0  0  0  0  0  0  0  0
  -19.4080   63.2650   24.9800 O   0  0  0  0  0  0  0  0  0  0  0  0
  -20.2260   62.3970   24.2460 C   0  0  0  0  0  0  0  0  0  0  0  0
  -21.4010   61.7660   24.9090 C   0  0  0  0  0  0  0  0  0  0  0  0
  -19.9640   62.1180   23.0440 O   0  0  0  0  0  0  0  0  0  0  0  0
  1 22  1  1  0  0  0
  1  2  1  0  0  0  0
  1  5  1  0  0  0  0
  2  3  1  0  0  0  0
  3  6  1  1  0  0  0
  4  3  1  6  0  0  0
  4 18  1  0  0  0  0
  5 27  1  6  0  0  0
  5  4  1  0  0  0  0
  7  8  1  0  0  0  0
  7  6  1  0  0  0  0
  8  9  1  0  0  0  0
 10  8  2  0  0  0  0
 11  3  1  0  0  0  0
 11 12  2  0  0  0  0
 13 12  1  0  0  0  0
 14 13  2  0  0  0  0
 15 14  1  0  0  0  0
 16 17  2  0  0  0  0
 16 14  1  0  0  0  0
 17 11  1  0  0  0  0
 18 19  1  0  0  0  0
 19 21  2  0  0  0  0
 19 20  1  0  0  0  0
 23 22  1  0  0  0  0
 24 23  1  0  0  0  0
 24 26  2  0  0  0  0
 25 24  1  0  0  0  0
 28 29  1  0  0  0  0
 28 27  1  0  0  0  0
 30 28  2  0  0  0  0
M  END
>  <REMARK>
 VINA RESULT:      -7.6      1.766      4.662
  11 active torsions:
  status: ('A' for Active; 'I' for Inactive)
    1  A    between atoms: C2_2  and  O2_4 
    2  A    between atoms: O2_4  and  C3_5 
    3  A    between atoms: C3_5  and  C4_6 
    4  A    between atoms: C5_8  and  C6_9 
    5  A    between atoms: C5_8  and  C9_14 
    6  A    between atoms: C6_9  and  O4_10 
    7  A    between atoms: O4_10  and  C7_11 
    8  A    between atoms: C16_21  and  O6_22 
    9  A    between atoms: O6_22  and  C17_23 
   10  A    between atoms: C19_26  and  O8_27 
   11  A    between atoms: O8_27  and  C20_28 

>  <TORSDO>
F 11

$$$$
../pdbqt/decoy.vina_out.35.pdbqt
 OpenBabel06052021513D

 30 31  0  0  1  0  0  0  0  0999 V2000
  -21.1320   66.3440   24.4930 C   0  0  2  0  0  0  0  0  0  0  0  0
  -22.1720   66.6570   25.3930 O   0  0  0  0  0  0  0  0  0  0  0  0
  -22.8650   65.4620   25.7180 C   0  0  1  0  0  0  0  0  0  0  0  0
  -22.2380   64.3110   24.8920 C   0  0  1  0  0  0  0  0  0  0  0  0
  -20.8820   64.8450   24.5370 C   0  0  1  0  0  0  0  0  0  0  0  0
  -22.7180   65.2560   27.2450 C   0  0  0  0  0  0  0  0  0  0  0  0
  -21.6940   66.1020   27.7610 O   0  0  0  0  0  0  0  0  0  0  0  0
  -21.2690   66.0570   29.0900 C   0  0  0  0  0  0  0  0  0  0  0  0
  -21.9090   66.9540   30.0930 C   0  0  0  0  0  0  0  0  0  0  0  0
  -20.3230   65.2980   29.4400 O   0  0  0  0  0  0  0  0  0  0  0  0
  -24.3500   65.6040   25.3770 C   0  0  0  0  0  0  0  0  0  0  0  0
  -24.7500   66.3840   24.2730 C   0  0  0  0  0  0  0  0  0  0  0  0
  -26.1020   66.5320   23.9540 C   0  0  0  0  0  0  0  0  0  0  0  0
  -27.0850   65.8980   24.7230 C   0  0  0  0  0  0  0  0  0  0  0  0
  -28.5340   66.0830   24.3830 C   0  0  0  0  0  0  0  0  0  0  0  0
  -26.7020   65.1270   25.8300 C   0  0  0  0  0  0  0  0  0  0  0  0
  -25.3490   64.9790   26.1520 C   0  0  0  0  0  0  0  0  0  0  0  0
  -22.1170   63.0950   25.6370 O   0  0  0  0  0  0  0  0  0  0  0  0
  -20.9050   62.4410   25.8800 C   0  0  0  0  0  0  0  0  0  0  0  0
  -20.4580   61.3640   24.9530 C   0  0  0  0  0  0  0  0  0  0  0  0
  -20.2060   62.7220   26.8910 O   0  0  0  0  0  0  0  0  0  0  0  0
  -19.8780   67.1450   24.8530 C   0  0  0  0  0  0  0  0  0  0  0  0
  -20.2360   68.4900   25.1550 O   0  0  0  0  0  0  0  0  0  0  0  0
  -19.5540   69.2600   26.1000 C   0  0  0  0  0  0  0  0  0  0  0  0
  -19.9530   69.1850   27.5340 C   0  0  0  0  0  0  0  0  0  0  0  0
  -18.6070   70.0180   25.7530 O   0  0  0  0  0  0  0  0  0  0  0  0
  -20.4630   64.3600   23.2590 O   0  0  0  0  0  0  0  0  0  0  0  0
  -19.1230   64.2210   22.8780 C   0  0  0  0  0  0  0  0  0  0  0  0
  -18.7330   64.5000   21.4680 C   0  0  0  0  0  0  0  0  0  0  0  0
  -18.2510   63.8310   23.7010 O   0  0  0  0  0  0  0  0  0  0  0  0
  1  5  1  0  0  0  0
  1 22  1  1  0  0  0
  1  2  1  0  0  0  0
  2  3  1  0  0  0  0
  3  6  1  1  0  0  0
  4 18  1  0  0  0  0
  4  3  1  1  0  0  0
  5 27  1  6  0  0  0
  5  4  1  0  0  0  0
  6  7  1  0  0  0  0
  7  8  1  0  0  0  0
  8 10  2  0  0  0  0
  8  9  1  0  0  0  0
 11  3  1  0  0  0  0
 11 17  2  0  0  0  0
 12 11  1  0  0  0  0
 13 12  2  0  0  0  0
 13 14  1  0  0  0  0
 14 16  2  0  0  0  0
 15 14  1  0  0  0  0
 16 17  1  0  0  0  0
 18 19  1  0  0  0  0
 19 21  2  0  0  0  0
 20 19  1  0  0  0  0
 22 23  1  0  0  0  0
 23 24  1  0  0  0  0
 24 25  1  0  0  0  0
 26 24  2  0  0  0  0
 28 27  1  0  0  0  0
 28 30  2  0  0  0  0
 29 28  1  0  0  0  0
M  END
>  <REMARK>
 VINA RESULT:      -7.4      1.806      2.282
  11 active torsions:
  status: ('A' for Active; 'I' for Inactive)
    1  A    between atoms: C2_2  and  O2_4 
    2  A    between atoms: O2_4  and  C3_5 
    3  A    between atoms: C3_5  and  C4_6 
    4  A    between atoms: C5_8  and  C6_9 
    5  A    between atoms: C5_8  and  C9_14 
    6  A    between atoms: C6_9  and  O4_10 
    7  A    between atoms: O4_10  and  C7_11 
    8  A    between atoms: C16_21  and  O6_22 
    9  A    between atoms: O6_22  and  C17_23 
   10  A    between atoms: C19_26  and  O8_27 
   11  A    between atoms: O8_27  and  C20_28 

>  <TORSDO>
F 11

$$$$
../pdbqt/decoy.vina_out.35.pdbqt
 OpenBabel06052021513D

 30 31  0  0  1  0  0  0  0  0999 V2000
  -21.2020   65.5440   25.8930 C   0  0  2  0  0  0  0  0  0  0  0  0
  -21.7170   64.2320   25.8760 O   0  0  0  0  0  0  0  0  0  0  0  0
  -23.0260   64.2660   25.3270 C   0  0  1  0  0  0  0  0  0  0  0  0
  -23.3790   65.7450   25.0370 C   0  0  1  0  0  0  0  0  0  0  0  0
  -22.0360   66.4090   24.9620 C   0  0  1  0  0  0  0  0  0  0  0  0
  -23.0020   63.3910   24.0500 C   0  0  0  0  0  0  0  0  0  0  0  0
  -21.9520   62.4320   24.1270 O   0  0  0  0  0  0  0  0  0  0  0  0
  -20.9260   62.3520   23.1840 C   0  0  0  0  0  0  0  0  0  0  0  0
  -19.5450   62.0120   23.6320 C   0  0  0  0  0  0  0  0  0  0  0  0
  -21.1450   62.6060   21.9680 O   0  0  0  0  0  0  0  0  0  0  0  0
  -24.0300   63.6710   26.3180 C   0  0  0  0  0  0  0  0  0  0  0  0
  -25.3260   64.2150   26.4220 C   0  0  0  0  0  0  0  0  0  0  0  0
  -26.2510   63.6900   27.3280 C   0  0  0  0  0  0  0  0  0  0  0  0
  -25.9070   62.6070   28.1440 C   0  0  0  0  0  0  0  0  0  0  0  0
  -26.9020   62.0670   29.1280 C   0  0  0  0  0  0  0  0  0  0  0  0
  -24.6180   62.0630   28.0580 C   0  0  0  0  0  0  0  0  0  0  0  0
  -23.6890   62.5870   27.1530 C   0  0  0  0  0  0  0  0  0  0  0  0
  -24.0910   65.9160   23.8070 O   0  0  0  0  0  0  0  0  0  0  0  0
  -25.2480   66.6900   23.6700 C   0  0  0  0  0  0  0  0  0  0  0  0
  -26.5710   66.0880   23.9950 C   0  0  0  0  0  0  0  0  0  0  0  0
  -25.1920   67.8740   23.2410 O   0  0  0  0  0  0  0  0  0  0  0  0
  -19.7260   65.5240   25.4870 C   0  0  0  0  0  0  0  0  0  0  0  0
  -19.6160   65.5730   24.0680 O   0  0  0  0  0  0  0  0  0  0  0  0
  -18.3870   65.6070   23.4050 C   0  0  0  0  0  0  0  0  0  0  0  0
  -17.1860   66.1370   24.1110 C   0  0  0  0  0  0  0  0  0  0  0  0
  -18.2830   65.1960   22.2170 O   0  0  0  0  0  0  0  0  0  0  0  0
  -22.1050   67.7540   25.4420 O   0  0  0  0  0  0  0  0  0  0  0  0
  -21.0090   68.4560   25.9570 C   0  0  0  0  0  0  0  0  0  0  0  0
  -20.9510   68.7500   27.4170 C   0  0  0  0  0  0  0  0  0  0  0  0
  -20.0900   68.8720   25.2010 O   0  0  0  0  0  0  0  0  0  0  0  0
  1 22  1  6  0  0  0
  2  1  1  0  0  0  0
  3  6  1  6  0  0  0
  3  2  1  0  0  0  0
  3 11  1  0  0  0  0
  4  3  1  6  0  0  0
  5  4  1  0  0  0  0
  5 27  1  1  0  0  0
  5  1  1  0  0  0  0
  6  7  1  0  0  0  0
  8  9  1  0  0  0  0
  8  7  1  0  0  0  0
 10  8  2  0  0  0  0
 11 12  2  0  0  0  0
 11 17  1  0  0  0  0
 12 13  1  0  0  0  0
 13 14  2  0  0  0  0
 14 15  1  0  0  0  0
 16 14  1  0  0  0  0
 17 16  2  0  0  0  0
 18  4  1  0  0  0  0
 19 18  1  0  0  0  0
 19 20  1  0  0  0  0
 21 19  2  0  0  0  0
 23 22  1  0  0  0  0
 24 23  1  0  0  0  0
 24 25  1  0  0  0  0
 26 24  2  0  0  0  0
 27 28  1  0  0  0  0
 28 29  1  0  0  0  0
 30 28  2  0  0  0  0
M  END
>  <REMARK>
 VINA RESULT:      -7.2      2.075      4.410
  11 active torsions:
  status: ('A' for Active; 'I' for Inactive)
    1  A    between atoms: C2_2  and  O2_4 
    2  A    between atoms: O2_4  and  C3_5 
    3  A    between atoms: C3_5  and  C4_6 
    4  A    between atoms: C5_8  and  C6_9 
    5  A    between atoms: C5_8  and  C9_14 
    6  A    between atoms: C6_9  and  O4_10 
    7  A    between atoms: O4_10  and  C7_11 
    8  A    between atoms: C16_21  and  O6_22 
    9  A    between atoms: O6_22  and  C17_23 
   10  A    between atoms: C19_26  and  O8_27 
   11  A    between atoms: O8_27  and  C20_28 

>  <TORSDO>
F 11

$$$$
../pdbqt/decoy.vina_out.35.pdbqt
 OpenBabel06052021513D

 30 31  0  0  1  0  0  0  0  0999 V2000
  -22.4960   65.1110   28.2760 C   0  0  2  0  0  0  0  0  0  0  0  0
  -23.8550   64.7350   28.2680 O   0  0  0  0  0  0  0  0  0  0  0  0
  -24.1150   64.0040   27.0800 C   0  0  1  0  0  0  0  0  0  0  0  0
  -22.8130   63.9800   26.2430 C   0  0  1  0  0  0  0  0  0  0  0  0
  -21.7480   64.2620   27.2610 C   0  0  1  0  0  0  0  0  0  0  0  0
  -24.5790   62.5920   27.5120 C   0  0  0  0  0  0  0  0  0  0  0  0
  -24.7640   62.5420   28.9230 O   0  0  0  0  0  0  0  0  0  0  0  0
  -26.0070   62.3260   29.5200 C   0  0  0  0  0  0  0  0  0  0  0  0
  -26.5280   63.3150   30.5050 C   0  0  0  0  0  0  0  0  0  0  0  0
  -26.6710   61.2830   29.2670 O   0  0  0  0  0  0  0  0  0  0  0  0
  -25.2380   64.6730   26.2840 C   0  0  0  0  0  0  0  0  0  0  0  0
  -26.5850   64.4030   26.5980 C   0  0  0  0  0  0  0  0  0  0  0  0
  -27.6220   64.9980   25.8760 C   0  0  0  0  0  0  0  0  0  0  0  0
  -27.3380   65.8820   24.8280 C   0  0  0  0  0  0  0  0  0  0  0  0
  -28.4600   66.4960   24.0450 C   0  0  0  0  0  0  0  0  0  0  0  0
  -26.0030   66.1500   24.4970 C   0  0  0  0  0  0  0  0  0  0  0  0
  -24.9630   65.5550   25.2180 C   0  0  0  0  0  0  0  0  0  0  0  0
  -22.5790   62.7170   25.6130 O   0  0  0  0  0  0  0  0  0  0  0  0
  -21.9570   62.5620   24.3700 C   0  0  0  0  0  0  0  0  0  0  0  0
  -20.5430   62.0970   24.3140 C   0  0  0  0  0  0  0  0  0  0  0  0
  -22.5610   62.8470   23.3000 O   0  0  0  0  0  0  0  0  0  0  0  0
  -21.9240   64.9510   29.6880 C   0  0  0  0  0  0  0  0  0  0  0  0
  -21.8590   63.5690   30.0270 O   0  0  0  0  0  0  0  0  0  0  0  0
  -20.7330   62.9870   30.6140 C   0  0  0  0  0  0  0  0  0  0  0  0
  -19.4610   62.9070   29.8420 C   0  0  0  0  0  0  0  0  0  0  0  0
  -20.7810   62.5280   31.7880 O   0  0  0  0  0  0  0  0  0  0  0  0
  -20.6690   64.9980   26.6780 O   0  0  0  0  0  0  0  0  0  0  0  0
  -20.8380   66.0140   25.7300 C   0  0  0  0  0  0  0  0  0  0  0  0
  -20.2740   65.8380   24.3630 C   0  0  0  0  0  0  0  0  0  0  0  0
  -21.4310   67.0870   26.0260 O   0  0  0  0  0  0  0  0  0  0  0  0
  1 22  1  1  0  0  0
  2  1  1  0  0  0  0
  3  6  1  1  0  0  0
  3  2  1  0  0  0  0
  4  3  1  1  0  0  0
  4  5  1  0  0  0  0
  5 27  1  6  0  0  0
  5  1  1  0  0  0  0
  6  7  1  0  0  0  0
  7  8  1  0  0  0  0
  8  9  1  0  0  0  0
 10  8  2  0  0  0  0
 11 12  1  0  0  0  0
 11  3  1  0  0  0  0
 13 12  2  0  0  0  0
 14 13  1  0  0  0  0
 15 14  1  0  0  0  0
 16 14  2  0  0  0  0
 16 17  1  0  0  0  0
 17 11  2  0  0  0  0
 18  4  1  0  0  0  0
 19 18  1  0  0  0  0
 20 19  1  0  0  0  0
 21 19  2  0  0  0  0
 22 23  1  0  0  0  0
 23 24  1  0  0  0  0
 24 26  2  0  0  0  0
 25 24  1  0  0  0  0
 28 30  2  0  0  0  0
 28 27  1  0  0  0  0
 29 28  1  0  0  0  0
M  END
>  <REMARK>
 VINA RESULT:      -7.1      2.238      4.003
  11 active torsions:
  status: ('A' for Active; 'I' for Inactive)
    1  A    between atoms: C2_2  and  O2_4 
    2  A    between atoms: O2_4  and  C3_5 
    3  A    between atoms: C3_5  and  C4_6 
    4  A    between atoms: C5_8  and  C6_9 
    5  A    between atoms: C5_8  and  C9_14 
    6  A    between atoms: C6_9  and  O4_10 
    7  A    between atoms: O4_10  and  C7_11 
    8  A    between atoms: C16_21  and  O6_22 
    9  A    between atoms: O6_22  and  C17_23 
   10  A    between atoms: C19_26  and  O8_27 
   11  A    between atoms: O8_27  and  C20_28 

>  <TORSDO>
F 11

$$$$
../pdbqt/decoy.vina_out.35.pdbqt
 OpenBabel06052021513D

 30 31  0  0  1  0  0  0  0  0999 V2000
  -22.6010   65.3580   28.4160 C   0  0  2  0  0  0  0  0  0  0  0  0
  -23.8990   64.8170   28.3050 O   0  0  0  0  0  0  0  0  0  0  0  0
  -24.0190   64.1830   27.0420 C   0  0  1  0  0  0  0  0  0  0  0  0
  -22.6950   64.4060   26.2710 C   0  0  1  0  0  0  0  0  0  0  0  0
  -21.7130   64.7160   27.3620 C   0  0  1  0  0  0  0  0  0  0  0  0
  -24.3120   62.6870   27.3140 C   0  0  0  0  0  0  0  0  0  0  0  0
  -24.5070   62.4680   28.7090 O   0  0  0  0  0  0  0  0  0  0  0  0
  -25.7400   62.1080   29.2560 C   0  0  0  0  0  0  0  0  0  0  0  0
  -26.3640   62.9810   30.2900 C   0  0  0  0  0  0  0  0  0  0  0  0
  -26.3080   61.0340   28.9170 O   0  0  0  0  0  0  0  0  0  0  0  0
  -25.1890   64.7830   26.2590 C   0  0  0  0  0  0  0  0  0  0  0  0
  -26.5150   64.4550   26.6080 C   0  0  0  0  0  0  0  0  0  0  0  0
  -27.5940   64.9860   25.8980 C   0  0  0  0  0  0  0  0  0  0  0  0
  -27.3750   65.8620   24.8280 C   0  0  0  0  0  0  0  0  0  0  0  0
  -28.5420   66.4080   24.0590 C   0  0  0  0  0  0  0  0  0  0  0  0
  -26.0620   66.1880   24.4630 C   0  0  0  0  0  0  0  0  0  0  0  0
  -24.9800   65.6560   25.1720 C   0  0  0  0  0  0  0  0  0  0  0  0
  -22.2770   63.2510   25.5360 O   0  0  0  0  0  0  0  0  0  0  0  0
  -21.8860   63.2740   24.1940 C   0  0  0  0  0  0  0  0  0  0  0  0
  -20.5740   63.8770   23.8260 C   0  0  0  0  0  0  0  0  0  0  0  0
  -22.6410   62.8280   23.2880 O   0  0  0  0  0  0  0  0  0  0  0  0
  -22.0650   65.1300   29.8320 C   0  0  0  0  0  0  0  0  0  0  0  0
  -21.7160   66.3790   30.4210 O   0  0  0  0  0  0  0  0  0  0  0  0
  -22.6340   67.1730   31.1120 C   0  0  0  0  0  0  0  0  0  0  0  0
  -23.7440   66.5240   31.8670 C   0  0  0  0  0  0  0  0  0  0  0  0
  -22.5360   68.4300   31.1030 O   0  0  0  0  0  0  0  0  0  0  0  0
  -20.7180   65.6350   26.9060 O   0  0  0  0  0  0  0  0  0  0  0  0
  -20.9320   67.0120   26.7640 C   0  0  0  0  0  0  0  0  0  0  0  0
  -21.6080   67.5230   25.5390 C   0  0  0  0  0  0  0  0  0  0  0  0
  -20.5330   67.8250   27.6410 O   0  0  0  0  0  0  0  0  0  0  0  0
  1 22  1  1  0  0  0
  2  1  1  0  0  0  0
  3  6  1  1  0  0  0
  3  2  1  0  0  0  0
  4  3  1  1  0  0  0
  4  5  1  0  0  0  0
  5 27  1  6  0  0  0
  5  1  1  0  0  0  0
  6  7  1  0  0  0  0
  7  8  1  0  0  0  0
  8  9  1  0  0  0  0
 10  8  2  0  0  0  0
 11 12  1  0  0  0  0
 11  3  1  0  0  0  0
 13 12  2  0  0  0  0
 14 13  1  0  0  0  0
 15 14  1  0  0  0  0
 16 14  2  0  0  0  0
 16 17  1  0  0  0  0
 17 11  2  0  0  0  0
 18  4  1  0  0  0  0
 19 18  1  0  0  0  0
 20 19  1  0  0  0  0
 21 19  2  0  0  0  0
 22 23  1  0  0  0  0
 23 24  1  0  0  0  0
 24 25  1  0  0  0  0
 26 24  2  0  0  0  0
 28 27  1  0  0  0  0
 28 30  2  0  0  0  0
 29 28  1  0  0  0  0
M  END
>  <REMARK>
 VINA RESULT:      -7.1      2.509      3.741
  11 active torsions:
  status: ('A' for Active; 'I' for Inactive)
    1  A    between atoms: C2_2  and  O2_4 
    2  A    between atoms: O2_4  and  C3_5 
    3  A    between atoms: C3_5  and  C4_6 
    4  A    between atoms: C5_8  and  C6_9 
    5  A    between atoms: C5_8  and  C9_14 
    6  A    between atoms: C6_9  and  O4_10 
    7  A    between atoms: O4_10  and  C7_11 
    8  A    between atoms: C16_21  and  O6_22 
    9  A    between atoms: O6_22  and  C17_23 
   10  A    between atoms: C19_26  and  O8_27 
   11  A    between atoms: O8_27  and  C20_28 

>  <TORSDO>
F 11

$$$$
../pdbqt/decoy.vina_out.35.pdbqt
 OpenBabel06052021513D

 30 31  0  0  1  0  0  0  0  0999 V2000
  -20.7790   64.5800   24.8530 C   0  0  2  0  0  0  0  0  0  0  0  0
  -21.6370   65.5980   24.3860 O   0  0  0  0  0  0  0  0  0  0  0  0
  -22.3460   66.1350   25.4920 C   0  0  1  0  0  0  0  0  0  0  0  0
  -21.9380   65.3330   26.7520 C   0  0  1  0  0  0  0  0  0  0  0  0
  -20.6250   64.7240   26.3590 C   0  0  1  0  0  0  0  0  0  0  0  0
  -21.9680   67.6340   25.5840 C   0  0  0  0  0  0  0  0  0  0  0  0
  -20.7500   67.8800   24.8870 O   0  0  0  0  0  0  0  0  0  0  0  0
  -19.6000   68.3630   25.5140 C   0  0  0  0  0  0  0  0  0  0  0  0
  -19.7110   69.4970   26.4740 C   0  0  0  0  0  0  0  0  0  0  0  0
  -18.4660   67.8790   25.2440 O   0  0  0  0  0  0  0  0  0  0  0  0
  -23.8540   66.0170   25.2610 C   0  0  0  0  0  0  0  0  0  0  0  0
  -24.4590   66.6940   24.1820 C   0  0  0  0  0  0  0  0  0  0  0  0
  -25.8350   66.6040   23.9630 C   0  0  0  0  0  0  0  0  0  0  0  0
  -26.6380   65.8310   24.8090 C   0  0  0  0  0  0  0  0  0  0  0  0
  -28.1180   65.7620   24.5750 C   0  0  0  0  0  0  0  0  0  0  0  0
  -26.0520   65.1620   25.8920 C   0  0  0  0  0  0  0  0  0  0  0  0
  -24.6740   65.2510   26.1150 C   0  0  0  0  0  0  0  0  0  0  0  0
  -21.7780   66.1590   27.9100 O   0  0  0  0  0  0  0  0  0  0  0  0
  -22.2790   65.8410   29.1760 C   0  0  0  0  0  0  0  0  0  0  0  0
  -23.0590   64.5860   29.3590 C   0  0  0  0  0  0  0  0  0  0  0  0
  -22.1120   66.6180   30.1550 O   0  0  0  0  0  0  0  0  0  0  0  0
  -19.4330   64.6660   24.1280 C   0  0  0  0  0  0  0  0  0  0  0  0
  -19.3950   63.7110   23.0720 O   0  0  0  0  0  0  0  0  0  0  0  0
  -20.0900   62.5000   23.1210 C   0  0  0  0  0  0  0  0  0  0  0  0
  -19.6430   61.4350   24.0620 C   0  0  0  0  0  0  0  0  0  0  0  0
  -21.0890   62.3000   22.3780 O   0  0  0  0  0  0  0  0  0  0  0  0
  -20.4500   63.4470   26.9770 O   0  0  0  0  0  0  0  0  0  0  0  0
  -19.3820   63.1290   27.8240 C   0  0  0  0  0  0  0  0  0  0  0  0
  -19.5540   63.2630   29.2980 C   0  0  0  0  0  0  0  0  0  0  0  0
  -18.2690   62.7640   27.3580 O   0  0  0  0  0  0  0  0  0  0  0  0
  1 22  1  6  0  0  0
  1  5  1  0  0  0  0
  2  1  1  0  0  0  0
  2  3  1  0  0  0  0
  3  6  1  1  0  0  0
  4  3  1  6  0  0  0
  4 18  1  0  0  0  0
  5  4  1  0  0  0  0
  5 27  1  1  0  0  0
  7  8  1  0  0  0  0
  7  6  1  0  0  0  0
  8  9  1  0  0  0  0
 10  8  2  0  0  0  0
 11  3  1  0  0  0  0
 11 17  2  0  0  0  0
 12 11  1  0  0  0  0
 13 12  2  0  0  0  0
 13 14  1  0  0  0  0
 14 16  2  0  0  0  0
 15 14  1  0  0  0  0
 16 17  1  0  0  0  0
 18 19  1  0  0  0  0
 19 20  1  0  0  0  0
 19 21  2  0  0  0  0
 23 24  1  0  0  0  0
 23 22  1  0  0  0  0
 24 25  1  0  0  0  0
 26 24  2  0  0  0  0
 27 28  1  0  0  0  0
 28 29  1  0  0  0  0
 30 28  2  0  0  0  0
M  END
>  <REMARK>
 VINA RESULT:      -7.1      1.591      4.953
  11 active torsions:
  status: ('A' for Active; 'I' for Inactive)
    1  A    between atoms: C2_2  and  O2_4 
    2  A    between atoms: O2_4  and  C3_5 
    3  A    between atoms: C3_5  and  C4_6 
    4  A    between atoms: C5_8  and  C6_9 
    5  A    between atoms: C5_8  and  C9_14 
    6  A    between atoms: C6_9  and  O4_10 
    7  A    between atoms: O4_10  and  C7_11 
    8  A    between atoms: C16_21  and  O6_22 
    9  A    between atoms: O6_22  and  C17_23 
   10  A    between atoms: C19_26  and  O8_27 
   11  A    between atoms: O8_27  and  C20_28 

>  <TORSDO>
F 11

$$$$
../pdbqt/decoy.vina_out.35.pdbqt
 OpenBabel06052021513D

 30 31  0  0  1  0  0  0  0  0999 V2000
  -22.5020   63.0350   25.7360 C   0  0  2  0  0  0  0  0  0  0  0  0
  -22.8710   63.9780   24.7550 O   0  0  0  0  0  0  0  0  0  0  0  0
  -23.1990   65.1990   25.4010 C   0  0  1  0  0  0  0  0  0  0  0  0
  -23.0850   64.9720   26.9280 C   0  0  1  0  0  0  0  0  0  0  0  0
  -22.1930   63.7700   27.0300 C   0  0  1  0  0  0  0  0  0  0  0  0
  -22.2080   66.2670   24.8760 C   0  0  0  0  0  0  0  0  0  0  0  0
  -21.0110   65.6470   24.4150 O   0  0  0  0  0  0  0  0  0  0  0  0
  -19.8730   66.3680   24.0510 C   0  0  0  0  0  0  0  0  0  0  0  0
  -18.9740   65.8300   22.9920 C   0  0  0  0  0  0  0  0  0  0  0  0
  -19.5760   67.4450   24.6390 O   0  0  0  0  0  0  0  0  0  0  0  0
  -24.6240   65.6220   25.0380 C   0  0  0  0  0  0  0  0  0  0  0  0
  -25.7200   65.1030   25.7570 C   0  0  0  0  0  0  0  0  0  0  0  0
  -27.0270   65.4720   25.4330 C   0  0  0  0  0  0  0  0  0  0  0  0
  -27.2710   66.3730   24.3900 C   0  0  0  0  0  0  0  0  0  0  0  0
  -28.6810   66.7430   24.0370 C   0  0  0  0  0  0  0  0  0  0  0  0
  -26.1910   66.8890   23.6600 C   0  0  0  0  0  0  0  0  0  0  0  0
  -24.8810   66.5200   23.9810 C   0  0  0  0  0  0  0  0  0  0  0  0
  -22.5030   66.0850   27.6140 O   0  0  0  0  0  0  0  0  0  0  0  0
  -21.3130   66.0220   28.3460 C   0  0  0  0  0  0  0  0  0  0  0  0
  -21.3730   65.8790   29.8270 C   0  0  0  0  0  0  0  0  0  0  0  0
  -20.1930   66.1230   27.7750 O   0  0  0  0  0  0  0  0  0  0  0  0
  -21.3060   62.2160   25.2420 C   0  0  0  0  0  0  0  0  0  0  0  0
  -20.1040   62.7310   25.8070 O   0  0  0  0  0  0  0  0  0  0  0  0
  -18.8960   62.7720   25.1070 C   0  0  0  0  0  0  0  0  0  0  0  0
  -18.8160   62.1700   23.7460 C   0  0  0  0  0  0  0  0  0  0  0  0
  -17.8750   63.3110   25.6130 O   0  0  0  0  0  0  0  0  0  0  0  0
  -22.5390   62.9730   28.1640 O   0  0  0  0  0  0  0  0  0  0  0  0
  -23.8200   62.9330   28.7300 C   0  0  0  0  0  0  0  0  0  0  0  0
  -24.8670   62.0780   28.1040 C   0  0  0  0  0  0  0  0  0  0  0  0
  -24.1070   63.6340   29.7380 O   0  0  0  0  0  0  0  0  0  0  0  0
  1 22  1  6  0  0  0
  1  5  1  0  0  0  0
  2  3  1  0  0  0  0
  2  1  1  0  0  0  0
  3  6  1  6  0  0  0
  4  3  1  6  0  0  0
  4  5  1  0  0  0  0
  4 18  1  0  0  0  0
  5 27  1  1  0  0  0
  7  6  1  0  0  0  0
  8  7  1  0  0  0  0
  8 10  2  0  0  0  0
  9  8  1  0  0  0  0
 11  3  1  0  0  0  0
 11 12  2  0  0  0  0
 13 12  1  0  0  0  0
 14 13  2  0  0  0  0
 15 14  1  0  0  0  0
 16 17  2  0  0  0  0
 16 14  1  0  0  0  0
 17 11  1  0  0  0  0
 18 19  1  0  0  0  0
 19 20  1  0  0  0  0
 21 19  2  0  0  0  0
 22 23  1  0  0  0  0
 24 26  2  0  0  0  0
 24 23  1  0  0  0  0
 25 24  1  0  0  0  0
 27 28  1  0  0  0  0
 28 30  2  0  0  0  0
 29 28  1  0  0  0  0
M  END
>  <REMARK>
 VINA RESULT:      -7.1      2.038      5.307
  11 active torsions:
  status: ('A' for Active; 'I' for Inactive)
    1  A    between atoms: C2_2  and  O2_4 
    2  A    between atoms: O2_4  and  C3_5 
    3  A    between atoms: C3_5  and  C4_6 
    4  A    between atoms: C5_8  and  C6_9 
    5  A    between atoms: C5_8  and  C9_14 
    6  A    between atoms: C6_9  and  O4_10 
    7  A    between atoms: O4_10  and  C7_11 
    8  A    between atoms: C16_21  and  O6_22 
    9  A    between atoms: O6_22  and  C17_23 
   10  A    between atoms: C19_26  and  O8_27 
   11  A    between atoms: O8_27  and  C20_28 

>  <TORSDO>
F 11

$$$$
../pdbqt/decoy.vina_out.35.pdbqt
 OpenBabel06052021513D

 30 31  0  0  1  0  0  0  0  0999 V2000
  -21.4880   63.5700   24.7790 C   0  0  2  0  0  0  0  0  0  0  0  0
  -22.8750   63.7860   24.6430 O   0  0  0  0  0  0  0  0  0  0  0  0
  -23.2960   64.6820   25.6590 C   0  0  1  0  0  0  0  0  0  0  0  0
  -22.0690   65.0010   26.5470 C   0  0  1  0  0  0  0  0  0  0  0  0
  -20.9080   64.6650   25.6600 C   0  0  1  0  0  0  0  0  0  0  0  0
  -23.8660   65.9340   24.9490 C   0  0  0  0  0  0  0  0  0  0  0  0
  -24.7050   65.5470   23.8640 O   0  0  0  0  0  0  0  0  0  0  0  0
  -25.6820   66.3840   23.3230 C   0  0  0  0  0  0  0  0  0  0  0  0
  -27.1210   66.0390   23.5000 C   0  0  0  0  0  0  0  0  0  0  0  0
  -25.3600   67.4020   22.6510 O   0  0  0  0  0  0  0  0  0  0  0  0
  -24.4020   64.0430   26.5030 C   0  0  0  0  0  0  0  0  0  0  0  0
  -24.1760   62.8090   27.1460 C   0  0  0  0  0  0  0  0  0  0  0  0
  -25.1770   62.2080   27.9120 C   0  0  0  0  0  0  0  0  0  0  0  0
  -26.4240   62.8270   28.0590 C   0  0  0  0  0  0  0  0  0  0  0  0
  -27.4980   62.1590   28.8650 C   0  0  0  0  0  0  0  0  0  0  0  0
  -26.6660   64.0480   27.4160 C   0  0  0  0  0  0  0  0  0  0  0  0
  -25.6650   64.6520   26.6470 C   0  0  0  0  0  0  0  0  0  0  0  0
  -22.0120   66.3750   26.9450 O   0  0  0  0  0  0  0  0  0  0  0  0
  -21.2930   66.8440   28.0490 C   0  0  0  0  0  0  0  0  0  0  0  0
  -20.6650   68.1930   27.9920 C   0  0  0  0  0  0  0  0  0  0  0  0
  -21.1370   66.1280   29.0750 O   0  0  0  0  0  0  0  0  0  0  0  0
  -20.8320   63.5390   23.3950 C   0  0  0  0  0  0  0  0  0  0  0  0
  -19.9920   64.6790   23.2360 O   0  0  0  0  0  0  0  0  0  0  0  0
  -18.7090   64.6020   22.6890 C   0  0  0  0  0  0  0  0  0  0  0  0
  -18.3260   65.5250   21.5840 C   0  0  0  0  0  0  0  0  0  0  0  0
  -17.8740   63.7610   23.1190 O   0  0  0  0  0  0  0  0  0  0  0  0
  -19.8060   64.1710   26.4260 O   0  0  0  0  0  0  0  0  0  0  0  0
  -18.5690   64.8190   26.5230 C   0  0  0  0  0  0  0  0  0  0  0  0
  -17.4460   64.1450   27.2310 C   0  0  0  0  0  0  0  0  0  0  0  0
  -18.4030   65.9760   26.0510 O   0  0  0  0  0  0  0  0  0  0  0  0
  1 22  1  6  0  0  0
  1  5  1  0  0  0  0
  2  1  1  0  0  0  0
  2  3  1  0  0  0  0
  3  6  1  6  0  0  0
  3 11  1  0  0  0  0
  4  3  1  6  0  0  0
  4 18  1  0  0  0  0
  5 27  1  1  0  0  0
  5  4  1  0  0  0  0
  7  6  1  0  0  0  0
  8  9  1  0  0  0  0
  8  7  1  0  0  0  0
 10  8  2  0  0  0  0
 11 17  2  0  0  0  0
 11 12  1  0  0  0  0
 12 13  2  0  0  0  0
 13 14  1  0  0  0  0
 14 15  1  0  0  0  0
 16 14  2  0  0  0  0
 17 16  1  0  0  0  0
 18 19  1  0  0  0  0
 19 21  2  0  0  0  0
 20 19  1  0  0  0  0
 23 22  1  0  0  0  0
 24 26  2  0  0  0  0
 24 23  1  0  0  0  0
 25 24  1  0  0  0  0
 27 28  1  0  0  0  0
 28 29  1  0  0  0  0
 30 28  2  0  0  0  0
M  END
>  <REMARK>
 VINA RESULT:      -7.0      2.260      5.168
  11 active torsions:
  status: ('A' for Active; 'I' for Inactive)
    1  A    between atoms: C2_2  and  O2_4 
    2  A    between atoms: O2_4  and  C3_5 
    3  A    between atoms: C3_5  and  C4_6 
    4  A    between atoms: C5_8  and  C6_9 
    5  A    between atoms: C5_8  and  C9_14 
    6  A    between atoms: C6_9  and  O4_10 
    7  A    between atoms: O4_10  and  C7_11 
    8  A    between atoms: C16_21  and  O6_22 
    9  A    between atoms: O6_22  and  C17_23 
   10  A    between atoms: C19_26  and  O8_27 
   11  A    between atoms: O8_27  and  C20_28 

>  <TORSDO>
F 11

$$$$
