../pdbqt/decoy.vina_out.3.pdbqt
 OpenBabel06052021513D

 30 32  0  0  0  0  0  0  0  0999 V2000
  -25.4750   64.8110   26.2680 C   0  0  0  0  0  0  0  0  0  0  0  0
  -26.6960   65.0370   25.6040 C   0  0  0  0  0  0  0  0  0  0  0  0
  -26.8060   65.9660   24.5640 C   0  0  0  0  0  0  0  0  0  0  0  0
  -25.6550   66.6190   24.1200 C   0  0  0  0  0  0  0  0  0  0  0  0
  -24.4290   66.3950   24.7400 C   0  0  0  0  0  0  0  0  0  0  0  0
  -24.3020   65.5210   25.8480 C   0  0  0  0  0  0  0  0  0  0  0  0
  -22.8950   65.2670   26.4520 C   0  0  0  0  0  0  0  0  0  0  0  0
  -23.0490   64.9410   27.8160 O   0  0  0  0  0  0  0  0  0  0  0  0
  -22.2280   65.2100   28.3080 H   0  0  0  0  0  0  0  0  0  0  0  0
  -22.2620   64.0890   25.6860 C   0  0  0  0  0  0  0  0  0  0  0  0
  -22.7270   63.6900   24.4120 C   0  0  0  0  0  0  0  0  0  0  0  0
  -22.1390   62.6130   23.7420 C   0  0  0  0  0  0  0  0  0  0  0  0
  -21.0860   61.9110   24.3270 C   0  0  0  0  0  0  0  0  0  0  0  0
  -20.6150   62.2850   25.5840 C   0  0  0  0  0  0  0  0  0  0  0  0
  -21.1940   63.3620   26.2600 C   0  0  0  0  0  0  0  0  0  0  0  0
  -22.0190   66.5400   26.4090 C   0  0  0  0  0  0  0  0  0  0  0  0
  -21.5270   67.1020   25.2070 C   0  0  0  0  0  0  0  0  0  0  0  0
  -20.7080   68.2350   25.2330 C   0  0  0  0  0  0  0  0  0  0  0  0
  -20.3450   68.8120   26.4500 C   0  0  0  0  0  0  0  0  0  0  0  0
  -20.7910   68.2530   27.6480 C   0  0  0  0  0  0  0  0  0  0  0  0
  -21.6110   67.1210   27.6300 C   0  0  0  0  0  0  0  0  0  0  0  0
  -25.4780   63.7500   27.3590 C   0  0  0  0  0  0  0  0  0  0  0  0
  -26.4270   64.0710   28.4560 N   0  0  0  0  0  0  0  0  0  0  0  0
  -27.5800   63.1510   28.4640 C   0  0  0  0  0  0  0  0  0  0  0  0
  -25.7340   64.0070   29.7550 C   0  0  0  0  0  0  0  0  0  0  0  0
  -26.7970   65.0430   28.3400 H   0  0  0  0  0  0  0  0  0  0  0  0
  -28.1200   66.1680   23.8520 C   0  0  0  0  0  0  0  0  0  0  0  0
  -28.9920   65.1280   24.1290 F   0  0  0  0  0  0  0  0  0  0  0  0
  -28.7180   67.3510   24.2530 F   0  0  0  0  0  0  0  0  0  0  0  0
  -27.8960   66.2160   22.4890 F   0  0  0  0  0  0  0  0  0  0  0  0
  1 22  1  0  0  0  0
  2  1  2  0  0  0  0
  3  2  1  0  0  0  0
  4  3  2  0  0  0  0
  4  5  1  0  0  0  0
  5  6  2  0  0  0  0
  6  1  1  0  0  0  0
  6  7  1  0  0  0  0
  7  8  1  0  0  0  0
  8  9  1  0  0  0  0
 10 15  1  0  0  0  0
 10  7  1  0  0  0  0
 11 10  2  0  0  0  0
 12 13  2  0  0  0  0
 12 11  1  0  0  0  0
 13 14  1  0  0  0  0
 14 15  2  0  0  0  0
 16  7  1  0  0  0  0
 16 21  2  0  0  0  0
 17 18  2  0  0  0  0
 17 16  1  0  0  0  0
 18 19  1  0  0  0  0
 19 20  2  0  0  0  0
 21 20  1  0  0  0  0
 22 23  1  0  0  0  0
 23 24  1  0  0  0  0
 23 25  1  0  0  0  0
 26 23  1  0  0  0  0
 27 28  1  0  0  0  0
 27 29  1  0  0  0  0
 27  3  1  0  0  0  0
 30 27  1  0  0  0  0
M  END
>  <MODEL>
1

>  <REMARK>
 VINA RESULT:      -9.8      0.000      0.000
  7 active torsions:
  status: ('A' for Active; 'I' for Inactive)
    1  A    between atoms: N1_2  and  C3_4 
    2  A    between atoms: C3_4  and  C4_5 
    3  A    between atoms: C6_7  and  C7_8 
    4  A    between atoms: C10_14  and  C11_15 
    5  A    between atoms: C11_15  and  O1_16 
    6  A    between atoms: C11_15  and  C12_17 
    7  A    between atoms: C11_15  and  C18_23 

>  <TORSDO>
F 7

$$$$
../pdbqt/decoy.vina_out.3.pdbqt
 OpenBabel06052021513D

 30 32  0  0  0  0  0  0  0  0999 V2000
  -23.3780   66.0390   25.1360 C   0  0  0  0  0  0  0  0  0  0  0  0
  -24.2200   66.7520   24.2600 C   0  0  0  0  0  0  0  0  0  0  0  0
  -25.6090   66.5940   24.2850 C   0  0  0  0  0  0  0  0  0  0  0  0
  -26.1760   65.7740   25.2620 C   0  0  0  0  0  0  0  0  0  0  0  0
  -25.3710   65.0790   26.1590 C   0  0  0  0  0  0  0  0  0  0  0  0
  -23.9560   65.1550   26.1060 C   0  0  0  0  0  0  0  0  0  0  0  0
  -23.1190   64.4040   27.1760 C   0  0  0  0  0  0  0  0  0  0  0  0
  -22.4360   65.3600   27.9570 O   0  0  0  0  0  0  0  0  0  0  0  0
  -22.7580   66.2680   27.7130 H   0  0  0  0  0  0  0  0  0  0  0  0
  -24.0960   63.5940   28.0510 C   0  0  0  0  0  0  0  0  0  0  0  0
  -24.6870   64.1410   29.2140 C   0  0  0  0  0  0  0  0  0  0  0  0
  -25.5640   63.3820   29.9940 C   0  0  0  0  0  0  0  0  0  0  0  0
  -25.8660   62.0680   29.6360 C   0  0  0  0  0  0  0  0  0  0  0  0
  -25.2920   61.5090   28.4960 C   0  0  0  0  0  0  0  0  0  0  0  0
  -24.4150   62.2600   27.7090 C   0  0  0  0  0  0  0  0  0  0  0  0
  -22.0310   63.5180   26.5280 C   0  0  0  0  0  0  0  0  0  0  0  0
  -22.2750   62.6820   25.4130 C   0  0  0  0  0  0  0  0  0  0  0  0
  -21.2590   61.8750   24.8920 C   0  0  0  0  0  0  0  0  0  0  0  0
  -19.9960   61.8640   25.4840 C   0  0  0  0  0  0  0  0  0  0  0  0
  -19.7460   62.6550   26.6060 C   0  0  0  0  0  0  0  0  0  0  0  0
  -20.7560   63.4650   27.1320 C   0  0  0  0  0  0  0  0  0  0  0  0
  -21.8870   66.3240   25.0340 C   0  0  0  0  0  0  0  0  0  0  0  0
  -21.4160   67.2520   26.0940 N   0  0  0  0  0  0  0  0  0  0  0  0
  -20.0700   66.8900   26.5760 C   0  0  0  0  0  0  0  0  0  0  0  0
  -21.4020   68.6350   25.5820 C   0  0  0  0  0  0  0  0  0  0  0  0
  -22.0650   67.2230   26.9140 H   0  0  0  0  0  0  0  0  0  0  0  0
  -26.4880   67.3910   23.3540 C   0  0  0  0  0  0  0  0  0  0  0  0
  -26.0480   68.7010   23.2680 F   0  0  0  0  0  0  0  0  0  0  0  0
  -26.4740   66.8460   22.0810 F   0  0  0  0  0  0  0  0  0  0  0  0
  -27.7850   67.3830   23.8330 F   0  0  0  0  0  0  0  0  0  0  0  0
  1  6  2  0  0  0  0
  2  3  2  0  0  0  0
  2  1  1  0  0  0  0
  3  4  1  0  0  0  0
  4  5  2  0  0  0  0
  6  5  1  0  0  0  0
  6  7  1  0  0  0  0
  7  8  1  0  0  0  0
  7 10  1  0  0  0  0
  9  8  1  0  0  0  0
 10 11  1  0  0  0  0
 11 12  2  0  0  0  0
 13 12  1  0  0  0  0
 14 13  2  0  0  0  0
 15 10  2  0  0  0  0
 15 14  1  0  0  0  0
 16 21  2  0  0  0  0
 16  7  1  0  0  0  0
 17 16  1  0  0  0  0
 18 17  2  0  0  0  0
 18 19  1  0  0  0  0
 19 20  2  0  0  0  0
 20 21  1  0  0  0  0
 22  1  1  0  0  0  0
 22 23  1  0  0  0  0
 23 24  1  0  0  0  0
 23 26  1  0  0  0  0
 25 23  1  0  0  0  0
 27 30  1  0  0  0  0
 27  3  1  0  0  0  0
 28 27  1  0  0  0  0
 29 27  1  0  0  0  0
M  END
>  <REMARK>
 VINA RESULT:      -9.5      1.802      4.694
  7 active torsions:
  status: ('A' for Active; 'I' for Inactive)
    1  A    between atoms: N1_2  and  C3_4 
    2  A    between atoms: C3_4  and  C4_5 
    3  A    between atoms: C6_7  and  C7_8 
    4  A    between atoms: C10_14  and  C11_15 
    5  A    between atoms: C11_15  and  O1_16 
    6  A    between atoms: C11_15  and  C12_17 
    7  A    between atoms: C11_15  and  C18_23 

>  <TORSDO>
F 7

$$$$
../pdbqt/decoy.vina_out.3.pdbqt
 OpenBabel06052021513D

 30 32  0  0  0  0  0  0  0  0999 V2000
  -21.3030   63.6300   26.4210 C   0  0  0  0  0  0  0  0  0  0  0  0
  -20.4080   62.9300   25.5880 C   0  0  0  0  0  0  0  0  0  0  0  0
  -20.7940   62.4570   24.3300 C   0  0  0  0  0  0  0  0  0  0  0  0
  -22.0710   62.7640   23.8570 C   0  0  0  0  0  0  0  0  0  0  0  0
  -22.9670   63.4770   24.6480 C   0  0  0  0  0  0  0  0  0  0  0  0
  -22.6330   63.8990   25.9590 C   0  0  0  0  0  0  0  0  0  0  0  0
  -23.6560   64.7460   26.7630 C   0  0  0  0  0  0  0  0  0  0  0  0
  -22.9460   65.7060   27.5140 O   0  0  0  0  0  0  0  0  0  0  0  0
  -22.3860   66.2490   26.8980 H   0  0  0  0  0  0  0  0  0  0  0  0
  -24.5890   65.4380   25.7510 C   0  0  0  0  0  0  0  0  0  0  0  0
  -25.9820   65.1960   25.7300 C   0  0  0  0  0  0  0  0  0  0  0  0
  -26.8040   65.8320   24.7960 C   0  0  0  0  0  0  0  0  0  0  0  0
  -26.2580   66.7140   23.8640 C   0  0  0  0  0  0  0  0  0  0  0  0
  -24.8870   66.9650   23.8650 C   0  0  0  0  0  0  0  0  0  0  0  0
  -24.0580   66.3350   24.7960 C   0  0  0  0  0  0  0  0  0  0  0  0
  -24.4290   63.8830   27.7870 C   0  0  0  0  0  0  0  0  0  0  0  0
  -24.8950   64.3820   29.0260 C   0  0  0  0  0  0  0  0  0  0  0  0
  -25.5560   63.5440   29.9280 C   0  0  0  0  0  0  0  0  0  0  0  0
  -25.7430   62.1950   29.6280 C   0  0  0  0  0  0  0  0  0  0  0  0
  -25.2600   61.6750   28.4270 C   0  0  0  0  0  0  0  0  0  0  0  0
  -24.5980   62.5070   27.5190 C   0  0  0  0  0  0  0  0  0  0  0  0
  -20.7530   64.1220   27.7520 C   0  0  0  0  0  0  0  0  0  0  0  0
  -20.4100   63.0040   28.6690 N   0  0  0  0  0  0  0  0  0  0  0  0
  -19.0880   63.2000   29.2940 C   0  0  0  0  0  0  0  0  0  0  0  0
  -21.4390   62.8800   29.7170 C   0  0  0  0  0  0  0  0  0  0  0  0
  -20.3820   62.1010   28.1420 H   0  0  0  0  0  0  0  0  0  0  0  0
  -19.8070   61.7360   23.4460 C   0  0  0  0  0  0  0  0  0  0  0  0
  -18.6210   62.4450   23.3570 F   0  0  0  0  0  0  0  0  0  0  0  0
  -19.5210   60.4800   23.9550 F   0  0  0  0  0  0  0  0  0  0  0  0
  -20.3450   61.5980   22.1800 F   0  0  0  0  0  0  0  0  0  0  0  0
  1 22  1  0  0  0  0
  2  1  2  0  0  0  0
  3  2  1  0  0  0  0
  4  3  2  0  0  0  0
  4  5  1  0  0  0  0
  5  6  2  0  0  0  0
  6  1  1  0  0  0  0
  6  7  1  0  0  0  0
  7  8  1  0  0  0  0
  7 16  1  0  0  0  0
  9  8  1  0  0  0  0
 10  7  1  0  0  0  0
 11 10  1  0  0  0  0
 12 11  2  0  0  0  0
 13 14  2  0  0  0  0
 13 12  1  0  0  0  0
 14 15  1  0  0  0  0
 15 10  2  0  0  0  0
 16 17  1  0  0  0  0
 17 18  2  0  0  0  0
 19 18  1  0  0  0  0
 20 19  2  0  0  0  0
 21 16  2  0  0  0  0
 21 20  1  0  0  0  0
 22 23  1  0  0  0  0
 23 24  1  0  0  0  0
 23 25  1  0  0  0  0
 26 23  1  0  0  0  0
 27 29  1  0  0  0  0
 27  3  1  0  0  0  0
 28 27  1  0  0  0  0
 30 27  1  0  0  0  0
M  END
>  <REMARK>
 VINA RESULT:      -9.3      3.813      6.503
  7 active torsions:
  status: ('A' for Active; 'I' for Inactive)
    1  A    between atoms: N1_2  and  C3_4 
    2  A    between atoms: C3_4  and  C4_5 
    3  A    between atoms: C6_7  and  C7_8 
    4  A    between atoms: C10_14  and  C11_15 
    5  A    between atoms: C11_15  and  O1_16 
    6  A    between atoms: C11_15  and  C12_17 
    7  A    between atoms: C11_15  and  C18_23 

>  <TORSDO>
F 7

$$$$
../pdbqt/decoy.vina_out.3.pdbqt
 OpenBabel06052021513D

 30 32  0  0  0  0  0  0  0  0999 V2000
  -25.2790   64.9720   25.8120 C   0  0  0  0  0  0  0  0  0  0  0  0
  -26.3070   64.5000   26.6520 C   0  0  0  0  0  0  0  0  0  0  0  0
  -26.1320   63.3770   27.4670 C   0  0  0  0  0  0  0  0  0  0  0  0
  -24.8790   62.7640   27.5090 C   0  0  0  0  0  0  0  0  0  0  0  0
  -23.8370   63.2250   26.7090 C   0  0  0  0  0  0  0  0  0  0  0  0
  -24.0070   64.3100   25.8130 C   0  0  0  0  0  0  0  0  0  0  0  0
  -22.7870   64.8140   24.9970 C   0  0  0  0  0  0  0  0  0  0  0  0
  -23.2430   65.2350   23.7310 O   0  0  0  0  0  0  0  0  0  0  0  0
  -24.1920   64.9620   23.6200 H   0  0  0  0  0  0  0  0  0  0  0  0
  -22.1670   65.9980   25.7660 C   0  0  0  0  0  0  0  0  0  0  0  0
  -21.9840   65.9660   27.1670 C   0  0  0  0  0  0  0  0  0  0  0  0
  -21.4260   67.0570   27.8400 C   0  0  0  0  0  0  0  0  0  0  0  0
  -21.0450   68.1970   27.1350 C   0  0  0  0  0  0  0  0  0  0  0  0
  -21.2190   68.2510   25.7530 C   0  0  0  0  0  0  0  0  0  0  0  0
  -21.7750   67.1650   25.0720 C   0  0  0  0  0  0  0  0  0  0  0  0
  -21.7700   63.6800   24.7350 C   0  0  0  0  0  0  0  0  0  0  0  0
  -20.6370   63.4510   25.5510 C   0  0  0  0  0  0  0  0  0  0  0  0
  -19.7310   62.4320   25.2430 C   0  0  0  0  0  0  0  0  0  0  0  0
  -19.9210   61.6420   24.1090 C   0  0  0  0  0  0  0  0  0  0  0  0
  -21.0130   61.8740   23.2730 C   0  0  0  0  0  0  0  0  0  0  0  0
  -21.9230   62.8910   23.5740 C   0  0  0  0  0  0  0  0  0  0  0  0
  -25.5820   66.2230   25.0010 C   0  0  0  0  0  0  0  0  0  0  0  0
  -26.1650   65.9070   23.6710 N   0  0  0  0  0  0  0  0  0  0  0  0
  -27.5990   65.5780   23.7710 C   0  0  0  0  0  0  0  0  0  0  0  0
  -25.9810   67.0480   22.7570 C   0  0  0  0  0  0  0  0  0  0  0  0
  -25.6780   65.0810   23.2510 H   0  0  0  0  0  0  0  0  0  0  0  0
  -27.2390   62.9110   28.3780 C   0  0  0  0  0  0  0  0  0  0  0  0
  -28.4740   63.3080   27.8910 F   0  0  0  0  0  0  0  0  0  0  0  0
  -27.2400   61.5300   28.4810 F   0  0  0  0  0  0  0  0  0  0  0  0
  -27.0550   63.4560   29.6350 F   0  0  0  0  0  0  0  0  0  0  0  0
  1  6  2  0  0  0  0
  1  2  1  0  0  0  0
  2  3  2  0  0  0  0
  3  4  1  0  0  0  0
  3 27  1  0  0  0  0
  5  4  2  0  0  0  0
  6  5  1  0  0  0  0
  7 10  1  0  0  0  0
  7  6  1  0  0  0  0
  8  7  1  0  0  0  0
  9  8  1  0  0  0  0
 10 11  2  0  0  0  0
 11 12  1  0  0  0  0
 13 12  2  0  0  0  0
 14 13  1  0  0  0  0
 15 14  2  0  0  0  0
 15 10  1  0  0  0  0
 16  7  1  0  0  0  0
 16 17  2  0  0  0  0
 18 17  1  0  0  0  0
 19 18  2  0  0  0  0
 20 21  2  0  0  0  0
 20 19  1  0  0  0  0
 21 16  1  0  0  0  0
 22  1  1  0  0  0  0
 23 24  1  0  0  0  0
 23 22  1  0  0  0  0
 25 23  1  0  0  0  0
 26 23  1  0  0  0  0
 27 29  1  0  0  0  0
 27 30  1  0  0  0  0
 28 27  1  0  0  0  0
M  END
>  <REMARK>
 VINA RESULT:      -9.2      2.346      5.111
  7 active torsions:
  status: ('A' for Active; 'I' for Inactive)
    1  A    between atoms: N1_2  and  C3_4 
    2  A    between atoms: C3_4  and  C4_5 
    3  A    between atoms: C6_7  and  C7_8 
    4  A    between atoms: C10_14  and  C11_15 
    5  A    between atoms: C11_15  and  O1_16 
    6  A    between atoms: C11_15  and  C12_17 
    7  A    between atoms: C11_15  and  C18_23 

>  <TORSDO>
F 7

$$$$
../pdbqt/decoy.vina_out.3.pdbqt
 OpenBabel06052021513D

 30 32  0  0  0  0  0  0  0  0999 V2000
  -25.7140   64.2080   26.6220 C   0  0  0  0  0  0  0  0  0  0  0  0
  -26.6060   64.9770   25.8490 C   0  0  0  0  0  0  0  0  0  0  0  0
  -26.1530   65.8510   24.8560 C   0  0  0  0  0  0  0  0  0  0  0  0
  -24.7870   65.8950   24.5700 C   0  0  0  0  0  0  0  0  0  0  0  0
  -23.8850   65.1260   25.3000 C   0  0  0  0  0  0  0  0  0  0  0  0
  -24.3060   64.2920   26.3660 C   0  0  0  0  0  0  0  0  0  0  0  0
  -23.2560   63.4130   27.0970 C   0  0  0  0  0  0  0  0  0  0  0  0
  -23.8420   62.1600   27.3750 O   0  0  0  0  0  0  0  0  0  0  0  0
  -23.7290   61.9560   28.3410 H   0  0  0  0  0  0  0  0  0  0  0  0
  -22.0490   63.2450   26.1540 C   0  0  0  0  0  0  0  0  0  0  0  0
  -21.9860   62.2040   25.1990 C   0  0  0  0  0  0  0  0  0  0  0  0
  -20.8750   62.0690   24.3610 C   0  0  0  0  0  0  0  0  0  0  0  0
  -19.8080   62.9610   24.4600 C   0  0  0  0  0  0  0  0  0  0  0  0
  -19.8480   63.9920   25.3980 C   0  0  0  0  0  0  0  0  0  0  0  0
  -20.9550   64.1350   26.2380 C   0  0  0  0  0  0  0  0  0  0  0  0
  -22.8610   64.0170   28.4630 C   0  0  0  0  0  0  0  0  0  0  0  0
  -22.9900   65.3930   28.7690 C   0  0  0  0  0  0  0  0  0  0  0  0
  -22.5810   65.8880   30.0110 C   0  0  0  0  0  0  0  0  0  0  0  0
  -22.0160   65.0340   30.9580 C   0  0  0  0  0  0  0  0  0  0  0  0
  -21.8480   63.6810   30.6620 C   0  0  0  0  0  0  0  0  0  0  0  0
  -22.2550   63.1780   29.4230 C   0  0  0  0  0  0  0  0  0  0  0  0
  -26.3340   63.2690   27.6470 C   0  0  0  0  0  0  0  0  0  0  0  0
  -26.9350   64.0010   28.7920 N   0  0  0  0  0  0  0  0  0  0  0  0
  -28.3510   63.6370   28.9870 C   0  0  0  0  0  0  0  0  0  0  0  0
  -26.1770   63.7160   30.0240 C   0  0  0  0  0  0  0  0  0  0  0  0
  -26.8920   65.0330   28.6240 H   0  0  0  0  0  0  0  0  0  0  0  0
  -27.1310   66.6410   24.0240 C   0  0  0  0  0  0  0  0  0  0  0  0
  -26.5740   67.8440   23.6230 F   0  0  0  0  0  0  0  0  0  0  0  0
  -27.4910   65.9330   22.8890 F   0  0  0  0  0  0  0  0  0  0  0  0
  -28.2640   66.8970   24.7730 F   0  0  0  0  0  0  0  0  0  0  0  0
  1 22  1  0  0  0  0
  2  1  2  0  0  0  0
  3  2  1  0  0  0  0
  4  3  2  0  0  0  0
  4  5  1  0  0  0  0
  5  6  2  0  0  0  0
  6  1  1  0  0  0  0
  6  7  1  0  0  0  0
  7  8  1  0  0  0  0
  7 16  1  0  0  0  0
  8  9  1  0  0  0  0
 10 15  1  0  0  0  0
 10  7  1  0  0  0  0
 11 10  2  0  0  0  0
 12 13  2  0  0  0  0
 12 11  1  0  0  0  0
 13 14  1  0  0  0  0
 14 15  2  0  0  0  0
 16 17  2  0  0  0  0
 16 21  1  0  0  0  0
 17 18  1  0  0  0  0
 18 19  2  0  0  0  0
 20 19  1  0  0  0  0
 21 20  2  0  0  0  0
 22 23  1  0  0  0  0
 23 24  1  0  0  0  0
 23 25  1  0  0  0  0
 26 23  1  0  0  0  0
 27 30  1  0  0  0  0
 27  3  1  0  0  0  0
 28 27  1  0  0  0  0
 29 27  1  0  0  0  0
M  END
>  <REMARK>
 VINA RESULT:      -8.9      1.975      2.739
  7 active torsions:
  status: ('A' for Active; 'I' for Inactive)
    1  A    between atoms: N1_2  and  C3_4 
    2  A    between atoms: C3_4  and  C4_5 
    3  A    between atoms: C6_7  and  C7_8 
    4  A    between atoms: C10_14  and  C11_15 
    5  A    between atoms: C11_15  and  O1_16 
    6  A    between atoms: C11_15  and  C12_17 
    7  A    between atoms: C11_15  and  C18_23 

>  <TORSDO>
F 7

$$$$
../pdbqt/decoy.vina_out.3.pdbqt
 OpenBabel06052021513D

 30 32  0  0  0  0  0  0  0  0999 V2000
  -21.3610   63.5600   26.2530 C   0  0  0  0  0  0  0  0  0  0  0  0
  -20.4720   62.8940   25.3870 C   0  0  0  0  0  0  0  0  0  0  0  0
  -20.8500   62.5170   24.0950 C   0  0  0  0  0  0  0  0  0  0  0  0
  -22.1110   62.8880   23.6270 C   0  0  0  0  0  0  0  0  0  0  0  0
  -23.0010   63.5710   24.4510 C   0  0  0  0  0  0  0  0  0  0  0  0
  -22.6770   63.8950   25.7930 C   0  0  0  0  0  0  0  0  0  0  0  0
  -23.6890   64.7130   26.6370 C   0  0  0  0  0  0  0  0  0  0  0  0
  -22.9750   65.6880   27.3660 O   0  0  0  0  0  0  0  0  0  0  0  0
  -22.3350   65.2330   27.9750 H   0  0  0  0  0  0  0  0  0  0  0  0
  -24.6760   65.3870   25.6630 C   0  0  0  0  0  0  0  0  0  0  0  0
  -24.2540   66.3560   24.7240 C   0  0  0  0  0  0  0  0  0  0  0  0
  -25.1710   66.9560   23.8570 C   0  0  0  0  0  0  0  0  0  0  0  0
  -26.5210   66.6100   23.9110 C   0  0  0  0  0  0  0  0  0  0  0  0
  -26.9580   65.6590   24.8320 C   0  0  0  0  0  0  0  0  0  0  0  0
  -26.0480   65.0520   25.7010 C   0  0  0  0  0  0  0  0  0  0  0  0
  -24.4030   63.8280   27.6840 C   0  0  0  0  0  0  0  0  0  0  0  0
  -24.6580   62.4500   27.4890 C   0  0  0  0  0  0  0  0  0  0  0  0
  -25.3410   61.7080   28.4570 C   0  0  0  0  0  0  0  0  0  0  0  0
  -25.8020   62.3240   29.6210 C   0  0  0  0  0  0  0  0  0  0  0  0
  -25.5900   63.6890   29.8160 C   0  0  0  0  0  0  0  0  0  0  0  0
  -24.9080   64.4380   28.8530 C   0  0  0  0  0  0  0  0  0  0  0  0
  -20.8180   63.9480   27.6210 C   0  0  0  0  0  0  0  0  0  0  0  0
  -19.8080   65.0340   27.5400 N   0  0  0  0  0  0  0  0  0  0  0  0
  -19.9690   66.0090   28.6360 C   0  0  0  0  0  0  0  0  0  0  0  0
  -18.4500   64.4630   27.5830 C   0  0  0  0  0  0  0  0  0  0  0  0
  -19.9070   65.5530   26.6370 H   0  0  0  0  0  0  0  0  0  0  0  0
  -19.8690   61.8300   23.1780 C   0  0  0  0  0  0  0  0  0  0  0  0
  -19.5420   60.5750   23.6640 F   0  0  0  0  0  0  0  0  0  0  0  0
  -20.4070   61.6760   21.9120 F   0  0  0  0  0  0  0  0  0  0  0  0
  -18.7180   62.5910   23.0890 F   0  0  0  0  0  0  0  0  0  0  0  0
  1 22  1  0  0  0  0
  2  1  2  0  0  0  0
  3  2  1  0  0  0  0
  4  3  2  0  0  0  0
  4  5  1  0  0  0  0
  5  6  2  0  0  0  0
  6  1  1  0  0  0  0
  6  7  1  0  0  0  0
  7  8  1  0  0  0  0
  7 16  1  0  0  0  0
  8  9  1  0  0  0  0
 10 15  1  0  0  0  0
 10  7  1  0  0  0  0
 11 10  2  0  0  0  0
 12 13  2  0  0  0  0
 12 11  1  0  0  0  0
 13 14  1  0  0  0  0
 14 15  2  0  0  0  0
 16 21  1  0  0  0  0
 17 16  2  0  0  0  0
 17 18  1  0  0  0  0
 18 19  2  0  0  0  0
 19 20  1  0  0  0  0
 21 20  2  0  0  0  0
 23 25  1  0  0  0  0
 23 22  1  0  0  0  0
 23 24  1  0  0  0  0
 26 23  1  0  0  0  0
 27 28  1  0  0  0  0
 27  3  1  0  0  0  0
 29 27  1  0  0  0  0
 30 27  1  0  0  0  0
M  END
>  <REMARK>
 VINA RESULT:      -8.8      3.729      6.543
  7 active torsions:
  status: ('A' for Active; 'I' for Inactive)
    1  A    between atoms: N1_2  and  C3_4 
    2  A    between atoms: C3_4  and  C4_5 
    3  A    between atoms: C6_7  and  C7_8 
    4  A    between atoms: C10_14  and  C11_15 
    5  A    between atoms: C11_15  and  O1_16 
    6  A    between atoms: C11_15  and  C12_17 
    7  A    between atoms: C11_15  and  C18_23 

>  <TORSDO>
F 7

$$$$
../pdbqt/decoy.vina_out.3.pdbqt
 OpenBabel06052021513D

 30 32  0  0  0  0  0  0  0  0999 V2000
  -24.6020   64.7450   25.9910 C   0  0  0  0  0  0  0  0  0  0  0  0
  -25.9750   64.9030   25.7210 C   0  0  0  0  0  0  0  0  0  0  0  0
  -26.4440   65.9000   24.8610 C   0  0  0  0  0  0  0  0  0  0  0  0
  -25.5190   66.7000   24.1880 C   0  0  0  0  0  0  0  0  0  0  0  0
  -24.1540   66.5480   24.4150 C   0  0  0  0  0  0  0  0  0  0  0  0
  -23.6520   65.6010   25.3420 C   0  0  0  0  0  0  0  0  0  0  0  0
  -22.1160   65.4390   25.5000 C   0  0  0  0  0  0  0  0  0  0  0  0
  -21.5010   66.6520   25.1250 O   0  0  0  0  0  0  0  0  0  0  0  0
  -21.2630   66.6100   24.1600 H   0  0  0  0  0  0  0  0  0  0  0  0
  -21.8280   65.1280   26.9820 C   0  0  0  0  0  0  0  0  0  0  0  0
  -22.0740   66.0720   28.0060 C   0  0  0  0  0  0  0  0  0  0  0  0
  -21.7970   65.7660   29.3410 C   0  0  0  0  0  0  0  0  0  0  0  0
  -21.2670   64.5220   29.6820 C   0  0  0  0  0  0  0  0  0  0  0  0
  -21.0140   63.5780   28.6880 C   0  0  0  0  0  0  0  0  0  0  0  0
  -21.2900   63.8740   27.3510 C   0  0  0  0  0  0  0  0  0  0  0  0
  -21.5570   64.3580   24.5480 C   0  0  0  0  0  0  0  0  0  0  0  0
  -20.2300   64.3680   24.0590 C   0  0  0  0  0  0  0  0  0  0  0  0
  -19.7910   63.3830   23.1700 C   0  0  0  0  0  0  0  0  0  0  0  0
  -20.6660   62.3880   22.7340 C   0  0  0  0  0  0  0  0  0  0  0  0
  -21.9890   62.3810   23.1780 C   0  0  0  0  0  0  0  0  0  0  0  0
  -22.4350   63.3620   24.0670 C   0  0  0  0  0  0  0  0  0  0  0  0
  -24.2160   63.6010   26.9180 C   0  0  0  0  0  0  0  0  0  0  0  0
  -25.2690   63.3100   27.9240 N   0  0  0  0  0  0  0  0  0  0  0  0
  -25.2970   61.8790   28.2840 C   0  0  0  0  0  0  0  0  0  0  0  0
  -25.0450   64.1200   29.1350 C   0  0  0  0  0  0  0  0  0  0  0  0
  -26.2110   63.5600   27.5430 H   0  0  0  0  0  0  0  0  0  0  0  0
  -27.9180   66.0290   24.5670 C   0  0  0  0  0  0  0  0  0  0  0  0
  -28.6710   65.6430   25.6640 F   0  0  0  0  0  0  0  0  0  0  0  0
  -28.2440   67.3390   24.2610 F   0  0  0  0  0  0  0  0  0  0  0  0
  -28.2410   65.2210   23.4930 F   0  0  0  0  0  0  0  0  0  0  0  0
  1 22  1  0  0  0  0
  2  1  1  0  0  0  0
  3  2  2  0  0  0  0
  4  5  2  0  0  0  0
  4  3  1  0  0  0  0
  5  6  1  0  0  0  0
  6  7  1  0  0  0  0
  6  1  2  0  0  0  0
  7 10  1  0  0  0  0
  8  7  1  0  0  0  0
  9  8  1  0  0  0  0
 10 15  2  0  0  0  0
 10 11  1  0  0  0  0
 11 12  2  0  0  0  0
 12 13  1  0  0  0  0
 14 13  2  0  0  0  0
 15 14  1  0  0  0  0
 16  7  1  0  0  0  0
 17 16  2  0  0  0  0
 18 17  1  0  0  0  0
 19 18  2  0  0  0  0
 19 20  1  0  0  0  0
 20 21  2  0  0  0  0
 21 16  1  0  0  0  0
 22 23  1  0  0  0  0
 23 24  1  0  0  0  0
 23 25  1  0  0  0  0
 26 23  1  0  0  0  0
 27  3  1  0  0  0  0
 27 28  1  0  0  0  0
 29 27  1  0  0  0  0
 30 27  1  0  0  0  0
M  END
>  <REMARK>
 VINA RESULT:      -8.4      1.695      3.443
  7 active torsions:
  status: ('A' for Active; 'I' for Inactive)
    1  A    between atoms: N1_2  and  C3_4 
    2  A    between atoms: C3_4  and  C4_5 
    3  A    between atoms: C6_7  and  C7_8 
    4  A    between atoms: C10_14  and  C11_15 
    5  A    between atoms: C11_15  and  O1_16 
    6  A    between atoms: C11_15  and  C12_17 
    7  A    between atoms: C11_15  and  C18_23 

>  <TORSDO>
F 7

$$$$
../pdbqt/decoy.vina_out.3.pdbqt
 OpenBabel06052021513D

 30 32  0  0  0  0  0  0  0  0999 V2000
  -20.0770   65.0710   24.3380 C   0  0  0  0  0  0  0  0  0  0  0  0
  -19.5090   63.8370   23.9660 C   0  0  0  0  0  0  0  0  0  0  0  0
  -20.2440   62.6470   24.0100 C   0  0  0  0  0  0  0  0  0  0  0  0
  -21.5970   62.7040   24.3480 C   0  0  0  0  0  0  0  0  0  0  0  0
  -22.1920   63.9140   24.6930 C   0  0  0  0  0  0  0  0  0  0  0  0
  -21.4530   65.1230   24.7380 C   0  0  0  0  0  0  0  0  0  0  0  0
  -22.1910   66.4470   25.0700 C   0  0  0  0  0  0  0  0  0  0  0  0
  -21.9090   67.3810   24.0500 O   0  0  0  0  0  0  0  0  0  0  0  0
  -22.3340   67.0750   23.2050 H   0  0  0  0  0  0  0  0  0  0  0  0
  -23.7010   66.1420   25.1160 C   0  0  0  0  0  0  0  0  0  0  0  0
  -24.2750   65.3600   26.1440 C   0  0  0  0  0  0  0  0  0  0  0  0
  -25.6470   65.0930   26.1580 C   0  0  0  0  0  0  0  0  0  0  0  0
  -26.4710   65.5920   25.1490 C   0  0  0  0  0  0  0  0  0  0  0  0
  -25.9250   66.3630   24.1240 C   0  0  0  0  0  0  0  0  0  0  0  0
  -24.5550   66.6370   24.1030 C   0  0  0  0  0  0  0  0  0  0  0  0
  -21.6730   67.0730   26.3840 C   0  0  0  0  0  0  0  0  0  0  0  0
  -21.1710   68.3930   26.4690 C   0  0  0  0  0  0  0  0  0  0  0  0
  -20.6820   68.8940   27.6790 C   0  0  0  0  0  0  0  0  0  0  0  0
  -20.6580   68.0860   28.8160 C   0  0  0  0  0  0  0  0  0  0  0  0
  -21.1160   66.7700   28.7450 C   0  0  0  0  0  0  0  0  0  0  0  0
  -21.6080   66.2630   27.5390 C   0  0  0  0  0  0  0  0  0  0  0  0
  -19.1840   66.2970   24.2140 C   0  0  0  0  0  0  0  0  0  0  0  0
  -17.7710   65.9400   23.9250 N   0  0  0  0  0  0  0  0  0  0  0  0
  -17.2800   66.6080   22.7050 C   0  0  0  0  0  0  0  0  0  0  0  0
  -16.9160   66.3070   25.0680 C   0  0  0  0  0  0  0  0  0  0  0  0
  -17.6830   64.9070   23.7790 H   0  0  0  0  0  0  0  0  0  0  0  0
  -19.6200   61.3440   23.5790 C   0  0  0  0  0  0  0  0  0  0  0  0
  -19.8450   60.3580   24.5240 F   0  0  0  0  0  0  0  0  0  0  0  0
  -20.1570   60.9180   22.3750 F   0  0  0  0  0  0  0  0  0  0  0  0
  -18.2570   61.5190   23.4270 F   0  0  0  0  0  0  0  0  0  0  0  0
  1  6  2  0  0  0  0
  2  3  2  0  0  0  0
  2  1  1  0  0  0  0
  3  4  1  0  0  0  0
  4  5  2  0  0  0  0
  5  6  1  0  0  0  0
  6  7  1  0  0  0  0
  7 10  1  0  0  0  0
  7 16  1  0  0  0  0
  8  7  1  0  0  0  0
  9  8  1  0  0  0  0
 10 11  2  0  0  0  0
 11 12  1  0  0  0  0
 13 12  2  0  0  0  0
 14 13  1  0  0  0  0
 15 14  2  0  0  0  0
 15 10  1  0  0  0  0
 16 17  2  0  0  0  0
 16 21  1  0  0  0  0
 17 18  1  0  0  0  0
 18 19  2  0  0  0  0
 20 19  1  0  0  0  0
 21 20  2  0  0  0  0
 22  1  1  0  0  0  0
 23 22  1  0  0  0  0
 23 25  1  0  0  0  0
 24 23  1  0  0  0  0
 26 23  1  0  0  0  0
 27  3  1  0  0  0  0
 27 28  1  0  0  0  0
 29 27  1  0  0  0  0
 30 27  1  0  0  0  0
M  END
>  <REMARK>
 VINA RESULT:      -8.2      4.240      6.668
  7 active torsions:
  status: ('A' for Active; 'I' for Inactive)
    1  A    between atoms: N1_2  and  C3_4 
    2  A    between atoms: C3_4  and  C4_5 
    3  A    between atoms: C6_7  and  C7_8 
    4  A    between atoms: C10_14  and  C11_15 
    5  A    between atoms: C11_15  and  O1_16 
    6  A    between atoms: C11_15  and  C12_17 
    7  A    between atoms: C11_15  and  C18_23 

>  <TORSDO>
F 7

$$$$
../pdbqt/decoy.vina_out.3.pdbqt
 OpenBabel06052021513D

 30 32  0  0  0  0  0  0  0  0999 V2000
  -20.8630   63.1350   26.4510 C   0  0  0  0  0  0  0  0  0  0  0  0
  -20.1480   62.6330   25.3460 C   0  0  0  0  0  0  0  0  0  0  0  0
  -20.7410   62.5000   24.0870 C   0  0  0  0  0  0  0  0  0  0  0  0
  -22.0470   62.9590   23.9050 C   0  0  0  0  0  0  0  0  0  0  0  0
  -22.7680   63.4860   24.9730 C   0  0  0  0  0  0  0  0  0  0  0  0
  -22.2220   63.5580   26.2790 C   0  0  0  0  0  0  0  0  0  0  0  0
  -23.0570   64.2140   27.4110 C   0  0  0  0  0  0  0  0  0  0  0  0
  -23.0910   63.3280   28.5090 O   0  0  0  0  0  0  0  0  0  0  0  0
  -22.1880   63.2920   28.9240 H   0  0  0  0  0  0  0  0  0  0  0  0
  -22.3580   65.5300   27.8050 C   0  0  0  0  0  0  0  0  0  0  0  0
  -22.2570   65.9500   29.1510 C   0  0  0  0  0  0  0  0  0  0  0  0
  -21.6240   67.1520   29.4800 C   0  0  0  0  0  0  0  0  0  0  0  0
  -21.0870   67.9600   28.4790 C   0  0  0  0  0  0  0  0  0  0  0  0
  -21.1780   67.5670   27.1440 C   0  0  0  0  0  0  0  0  0  0  0  0
  -21.8070   66.3660   26.8070 C   0  0  0  0  0  0  0  0  0  0  0  0
  -24.5260   64.4280   26.9840 C   0  0  0  0  0  0  0  0  0  0  0  0
  -25.5970   63.6430   27.4700 C   0  0  0  0  0  0  0  0  0  0  0  0
  -26.9030   63.8590   27.0190 C   0  0  0  0  0  0  0  0  0  0  0  0
  -27.1620   64.8400   26.0610 C   0  0  0  0  0  0  0  0  0  0  0  0
  -26.1140   65.6020   25.5430 C   0  0  0  0  0  0  0  0  0  0  0  0
  -24.8070   65.3910   25.9890 C   0  0  0  0  0  0  0  0  0  0  0  0
  -20.0950   63.2630   27.7590 C   0  0  0  0  0  0  0  0  0  0  0  0
  -18.7810   63.9330   27.5800 N   0  0  0  0  0  0  0  0  0  0  0  0
  -18.6600   65.1300   28.4320 C   0  0  0  0  0  0  0  0  0  0  0  0
  -17.6900   62.9920   27.8910 C   0  0  0  0  0  0  0  0  0  0  0  0
  -18.6650   64.2380   26.5850 H   0  0  0  0  0  0  0  0  0  0  0  0
  -19.9440   61.9860   22.9140 C   0  0  0  0  0  0  0  0  0  0  0  0
  -20.7610   61.8000   21.8110 F   0  0  0  0  0  0  0  0  0  0  0  0
  -18.9490   62.8830   22.5670 F   0  0  0  0  0  0  0  0  0  0  0  0
  -19.3640   60.7780   23.2520 F   0  0  0  0  0  0  0  0  0  0  0  0
  1 22  1  0  0  0  0
  2  1  2  0  0  0  0
  3  2  1  0  0  0  0
  4  3  2  0  0  0  0
  4  5  1  0  0  0  0
  5  6  2  0  0  0  0
  6  1  1  0  0  0  0
  6  7  1  0  0  0  0
  7 10  1  0  0  0  0
  7  8  1  0  0  0  0
  8  9  1  0  0  0  0
 10 11  2  0  0  0  0
 11 12  1  0  0  0  0
 13 12  2  0  0  0  0
 14 13  1  0  0  0  0
 15 14  2  0  0  0  0
 15 10  1  0  0  0  0
 16  7  1  0  0  0  0
 16 17  2  0  0  0  0
 18 17  1  0  0  0  0
 19 18  2  0  0  0  0
 20 21  2  0  0  0  0
 20 19  1  0  0  0  0
 21 16  1  0  0  0  0
 23 22  1  0  0  0  0
 23 25  1  0  0  0  0
 23 24  1  0  0  0  0
 26 23  1  0  0  0  0
 27 30  1  0  0  0  0
 27  3  1  0  0  0  0
 28 27  1  0  0  0  0
 29 27  1  0  0  0  0
M  END
>  <REMARK>
 VINA RESULT:      -8.0      3.697      6.576
  7 active torsions:
  status: ('A' for Active; 'I' for Inactive)
    1  A    between atoms: N1_2  and  C3_4 
    2  A    between atoms: C3_4  and  C4_5 
    3  A    between atoms: C6_7  and  C7_8 
    4  A    between atoms: C10_14  and  C11_15 
    5  A    between atoms: C11_15  and  O1_16 
    6  A    between atoms: C11_15  and  C12_17 
    7  A    between atoms: C11_15  and  C18_23 

>  <TORSDO>
F 7

$$$$
