../pdbqt/decoy.vina_out.40.pdbqt
 OpenBabel06052021513D

 21 22  0  0  0  0  0  0  0  0999 V2000
  -26.4930   62.1420   30.1730 C   0  0  0  0  0  0  0  0  0  0  0  0
  -25.4600   61.8230   29.2820 C   0  0  0  0  0  0  0  0  0  0  0  0
  -25.4420   62.4040   28.0160 C   0  0  0  0  0  0  0  0  0  0  0  0
  -26.4520   63.3030   27.6380 C   0  0  0  0  0  0  0  0  0  0  0  0
  -27.4740   63.6000   28.5600 C   0  0  0  0  0  0  0  0  0  0  0  0
  -27.4680   63.0150   29.7940 N   0  0  0  0  0  0  0  0  0  0  0  0
  -28.2330   63.2450   30.4680 H   0  0  0  0  0  0  0  0  0  0  0  0
  -26.4570   63.9150   26.3420 N   0  0  0  0  0  0  0  0  0  0  0  0
  -26.4860   65.1780   26.1860 N   0  0  0  0  0  0  0  0  0  0  0  0
  -26.4920   65.7880   24.8880 C   0  0  0  0  0  0  0  0  0  0  0  0
  -25.3550   66.4490   24.3870 C   0  0  0  0  0  0  0  0  0  0  0  0
  -25.3840   67.0370   23.1190 C   0  0  0  0  0  0  0  0  0  0  0  0
  -26.5440   66.9710   22.3420 C   0  0  0  0  0  0  0  0  0  0  0  0
  -27.6770   66.3160   22.8320 C   0  0  0  0  0  0  0  0  0  0  0  0
  -27.6550   65.7260   24.1020 C   0  0  0  0  0  0  0  0  0  0  0  0
  -29.0970   64.9090   24.6900 Cl  0  0  0  0  0  0  0  0  0  0  0  0
  -28.5250   64.5110   28.2180 N   0  0  0  0  0  0  0  0  0  0  0  0
  -28.3460   65.5310   28.0820 H   0  0  0  0  0  0  0  0  0  0  0  0
  -29.5040   64.1680   28.0970 H   0  0  0  0  0  0  0  0  0  0  0  0
  -26.5290   61.6120   31.3560 N   0  0  0  0  0  0  0  0  0  0  0  0
  -26.9040   62.1220   32.1880 H   0  0  0  0  0  0  0  0  0  0  0  0
  1 20  1  0  0  0  0
  2  1  2  0  0  0  0
  3  2  1  0  0  0  0
  4  3  1  0  0  0  0
  4  5  2  0  0  0  0
  5  6  1  0  0  0  0
  6  1  1  0  0  0  0
  6  7  1  0  0  0  0
  8  4  1  0  0  0  0
  9  8  2  0  0  0  0
 10  9  1  0  0  0  0
 11 10  1  0  0  0  0
 12 11  2  0  0  0  0
 13 14  2  0  0  0  0
 13 12  1  0  0  0  0
 14 15  1  0  0  0  0
 15 16  1  0  0  0  0
 15 10  2  0  0  0  0
 17  5  1  0  0  0  0
 18 17  1  0  0  0  0
 19 17  1  0  0  0  0
 20 21  1  0  0  0  0
M  END
>  <MODEL>
1

>  <REMARK>
 VINA RESULT:      -7.3      0.000      0.000
  4 active torsions:
  status: ('A' for Active; 'I' for Inactive)
    1  A    between atoms: N1_2  and  C1_3 
    2  A    between atoms: C4_6  and  N2_7 
    3  A    between atoms: N3_8  and  C5_9 
    4  A    between atoms: C11_16  and  N4_17 

>  <TORSDO>
F 4

$$$$
../pdbqt/decoy.vina_out.40.pdbqt
 OpenBabel06052021513D

 21 22  0  0  0  0  0  0  0  0999 V2000
  -26.5420   62.1510   30.2000 C   0  0  0  0  0  0  0  0  0  0  0  0
  -25.6030   61.8310   29.2110 C   0  0  0  0  0  0  0  0  0  0  0  0
  -25.6940   62.4350   27.9580 C   0  0  0  0  0  0  0  0  0  0  0  0
  -26.7190   63.3580   27.6930 C   0  0  0  0  0  0  0  0  0  0  0  0
  -27.6440   63.6550   28.7120 C   0  0  0  0  0  0  0  0  0  0  0  0
  -27.5320   63.0470   29.9300 N   0  0  0  0  0  0  0  0  0  0  0  0
  -28.2260   63.2770   30.6770 H   0  0  0  0  0  0  0  0  0  0  0  0
  -26.8350   63.9930   26.4130 N   0  0  0  0  0  0  0  0  0  0  0  0
  -26.2850   65.1120   26.1570 N   0  0  0  0  0  0  0  0  0  0  0  0
  -26.4020   65.7470   24.8770 C   0  0  0  0  0  0  0  0  0  0  0  0
  -27.6170   65.7420   24.1670 C   0  0  0  0  0  0  0  0  0  0  0  0
  -27.7070   66.3670   22.9200 C   0  0  0  0  0  0  0  0  0  0  0  0
  -26.5900   67.0000   22.3710 C   0  0  0  0  0  0  0  0  0  0  0  0
  -25.3790   67.0110   23.0690 C   0  0  0  0  0  0  0  0  0  0  0  0
  -25.2810   66.3860   24.3180 C   0  0  0  0  0  0  0  0  0  0  0  0
  -23.7440   66.4170   25.1720 Cl  0  0  0  0  0  0  0  0  0  0  0  0
  -28.7060   64.5890   28.4850 N   0  0  0  0  0  0  0  0  0  0  0  0
  -28.8490   65.4180   29.1030 H   0  0  0  0  0  0  0  0  0  0  0  0
  -29.3670   64.4550   27.6880 H   0  0  0  0  0  0  0  0  0  0  0  0
  -26.4760   61.6000   31.3730 N   0  0  0  0  0  0  0  0  0  0  0  0
  -25.5740   61.4820   31.8880 H   0  0  0  0  0  0  0  0  0  0  0  0
  1 20  1  0  0  0  0
  2  1  2  0  0  0  0
  3  2  1  0  0  0  0
  4  3  1  0  0  0  0
  4  5  2  0  0  0  0
  5  6  1  0  0  0  0
  6  1  1  0  0  0  0
  6  7  1  0  0  0  0
  8  4  1  0  0  0  0
  9  8  2  0  0  0  0
 10  9  1  0  0  0  0
 11 10  2  0  0  0  0
 12 11  1  0  0  0  0
 13 12  2  0  0  0  0
 13 14  1  0  0  0  0
 14 15  2  0  0  0  0
 15 10  1  0  0  0  0
 15 16  1  0  0  0  0
 17  5  1  0  0  0  0
 17 18  1  0  0  0  0
 19 17  1  0  0  0  0
 20 21  1  0  0  0  0
M  END
>  <REMARK>
 VINA RESULT:      -7.3      1.367      1.802
  4 active torsions:
  status: ('A' for Active; 'I' for Inactive)
    1  A    between atoms: N1_2  and  C1_3 
    2  A    between atoms: C4_6  and  N2_7 
    3  A    between atoms: N3_8  and  C5_9 
    4  A    between atoms: C11_16  and  N4_17 

>  <TORSDO>
F 4

$$$$
../pdbqt/decoy.vina_out.40.pdbqt
 OpenBabel06052021513D

 21 22  0  0  0  0  0  0  0  0999 V2000
  -18.6160   66.4260   23.7250 C   0  0  0  0  0  0  0  0  0  0  0  0
  -19.0400   65.0950   23.6400 C   0  0  0  0  0  0  0  0  0  0  0  0
  -20.3230   64.7540   24.0650 C   0  0  0  0  0  0  0  0  0  0  0  0
  -21.1810   65.7420   24.5750 C   0  0  0  0  0  0  0  0  0  0  0  0
  -20.7200   67.0700   24.6460 C   0  0  0  0  0  0  0  0  0  0  0  0
  -19.4580   67.3750   24.2220 N   0  0  0  0  0  0  0  0  0  0  0  0
  -19.1290   68.3660   24.2810 H   0  0  0  0  0  0  0  0  0  0  0  0
  -22.5050   65.4190   25.0200 N   0  0  0  0  0  0  0  0  0  0  0  0
  -23.5360   66.0280   24.5880 N   0  0  0  0  0  0  0  0  0  0  0  0
  -24.8590   65.7040   25.0350 C   0  0  0  0  0  0  0  0  0  0  0  0
  -25.0710   64.9170   26.1810 C   0  0  0  0  0  0  0  0  0  0  0  0
  -26.3710   64.6140   26.5970 C   0  0  0  0  0  0  0  0  0  0  0  0
  -27.4670   65.0920   25.8760 C   0  0  0  0  0  0  0  0  0  0  0  0
  -27.2660   65.8750   24.7360 C   0  0  0  0  0  0  0  0  0  0  0  0
  -25.9670   66.1820   24.3130 C   0  0  0  0  0  0  0  0  0  0  0  0
  -25.7470   67.1700   22.8750 Cl  0  0  0  0  0  0  0  0  0  0  0  0
  -21.5610   68.1100   25.1600 N   0  0  0  0  0  0  0  0  0  0  0  0
  -21.6480   69.0330   24.6810 H   0  0  0  0  0  0  0  0  0  0  0  0
  -22.1110   67.9610   26.0360 H   0  0  0  0  0  0  0  0  0  0  0  0
  -17.4260   66.7650   23.3340 N   0  0  0  0  0  0  0  0  0  0  0  0
  -17.1010   67.7580   23.3200 H   0  0  0  0  0  0  0  0  0  0  0  0
  1  6  1  0  0  0  0
  2  1  1  0  0  0  0
  2  3  2  0  0  0  0
  3  4  1  0  0  0  0
  4  5  2  0  0  0  0
  4  8  1  0  0  0  0
  5 17  1  0  0  0  0
  6  7  1  0  0  0  0
  6  5  1  0  0  0  0
  9  8  2  0  0  0  0
  9 10  1  0  0  0  0
 10 11  2  0  0  0  0
 11 12  1  0  0  0  0
 13 12  2  0  0  0  0
 14 13  1  0  0  0  0
 15 14  2  0  0  0  0
 15 10  1  0  0  0  0
 16 15  1  0  0  0  0
 17 19  1  0  0  0  0
 18 17  1  0  0  0  0
 20  1  2  0  0  0  0
 21 20  1  0  0  0  0
M  END
>  <REMARK>
 VINA RESULT:      -7.1      4.862      6.989
  4 active torsions:
  status: ('A' for Active; 'I' for Inactive)
    1  A    between atoms: N1_2  and  C1_3 
    2  A    between atoms: C4_6  and  N2_7 
    3  A    between atoms: N3_8  and  C5_9 
    4  A    between atoms: C11_16  and  N4_17 

>  <TORSDO>
F 4

$$$$
../pdbqt/decoy.vina_out.40.pdbqt
 OpenBabel06052021513D

 21 22  0  0  0  0  0  0  0  0999 V2000
  -26.5540   62.8200   32.3140 C   0  0  0  0  0  0  0  0  0  0  0  0
  -27.2780   64.0100   32.1760 C   0  0  0  0  0  0  0  0  0  0  0  0
  -27.7020   64.4130   30.9100 C   0  0  0  0  0  0  0  0  0  0  0  0
  -27.4030   63.6290   29.7850 C   0  0  0  0  0  0  0  0  0  0  0  0
  -26.6730   62.4390   29.9620 C   0  0  0  0  0  0  0  0  0  0  0  0
  -26.2700   62.0680   31.2130 N   0  0  0  0  0  0  0  0  0  0  0  0
  -25.7280   61.1810   31.3300 H   0  0  0  0  0  0  0  0  0  0  0  0
  -27.8260   64.0210   28.4720 N   0  0  0  0  0  0  0  0  0  0  0  0
  -27.0000   64.3550   27.5630 N   0  0  0  0  0  0  0  0  0  0  0  0
  -27.4250   64.7480   26.2510 C   0  0  0  0  0  0  0  0  0  0  0  0
  -28.7400   64.5160   25.8080 C   0  0  0  0  0  0  0  0  0  0  0  0
  -29.1310   64.9070   24.5250 C   0  0  0  0  0  0  0  0  0  0  0  0
  -28.2170   65.5320   23.6740 C   0  0  0  0  0  0  0  0  0  0  0  0
  -26.9080   65.7670   24.1050 C   0  0  0  0  0  0  0  0  0  0  0  0
  -26.5090   65.3770   25.3890 C   0  0  0  0  0  0  0  0  0  0  0  0
  -24.8560   65.6860   25.9020 Cl  0  0  0  0  0  0  0  0  0  0  0  0
  -26.3450   61.6080   28.8410 N   0  0  0  0  0  0  0  0  0  0  0  0
  -26.8960   60.7510   28.6130 H   0  0  0  0  0  0  0  0  0  0  0  0
  -25.5370   61.8480   28.2240 H   0  0  0  0  0  0  0  0  0  0  0  0
  -26.1500   62.4260   33.4820 N   0  0  0  0  0  0  0  0  0  0  0  0
  -26.6170   62.7250   34.3680 H   0  0  0  0  0  0  0  0  0  0  0  0
  1 20  1  0  0  0  0
  2  1  2  0  0  0  0
  3  2  1  0  0  0  0
  4  5  2  0  0  0  0
  4  3  1  0  0  0  0
  5  6  1  0  0  0  0
  6  7  1  0  0  0  0
  6  1  1  0  0  0  0
  8  4  1  0  0  0  0
  9  8  2  0  0  0  0
 10  9  1  0  0  0  0
 11 10  1  0  0  0  0
 12 11  2  0  0  0  0
 13 14  2  0  0  0  0
 13 12  1  0  0  0  0
 14 15  1  0  0  0  0
 15 16  1  0  0  0  0
 15 10  2  0  0  0  0
 17  5  1  0  0  0  0
 18 17  1  0  0  0  0
 19 17  1  0  0  0  0
 20 21  1  0  0  0  0
M  END
>  <REMARK>
 VINA RESULT:      -7.1      1.994      3.020
  4 active torsions:
  status: ('A' for Active; 'I' for Inactive)
    1  A    between atoms: N1_2  and  C1_3 
    2  A    between atoms: C4_6  and  N2_7 
    3  A    between atoms: N3_8  and  C5_9 
    4  A    between atoms: C11_16  and  N4_17 

>  <TORSDO>
F 4

$$$$
../pdbqt/decoy.vina_out.40.pdbqt
 OpenBabel06052021513D

 21 22  0  0  0  0  0  0  0  0999 V2000
  -18.9390   66.2590   23.2690 C   0  0  0  0  0  0  0  0  0  0  0  0
  -18.7760   64.9590   23.7660 C   0  0  0  0  0  0  0  0  0  0  0  0
  -19.7440   64.4220   24.6130 C   0  0  0  0  0  0  0  0  0  0  0  0
  -20.8720   65.1800   24.9640 C   0  0  0  0  0  0  0  0  0  0  0  0
  -21.0030   66.4820   24.4450 C   0  0  0  0  0  0  0  0  0  0  0  0
  -20.0390   66.9840   23.6170 N   0  0  0  0  0  0  0  0  0  0  0  0
  -20.1490   67.9520   23.2390 H   0  0  0  0  0  0  0  0  0  0  0  0
  -21.8810   64.6520   25.8340 N   0  0  0  0  0  0  0  0  0  0  0  0
  -23.0420   64.3350   25.4160 N   0  0  0  0  0  0  0  0  0  0  0  0
  -24.0500   63.8070   26.2880 C   0  0  0  0  0  0  0  0  0  0  0  0
  -23.7990   62.6900   27.1050 C   0  0  0  0  0  0  0  0  0  0  0  0
  -24.7980   62.1930   27.9460 C   0  0  0  0  0  0  0  0  0  0  0  0
  -26.0540   62.8040   27.9800 C   0  0  0  0  0  0  0  0  0  0  0  0
  -26.3130   63.9140   27.1720 C   0  0  0  0  0  0  0  0  0  0  0  0
  -25.3160   64.4170   26.3260 C   0  0  0  0  0  0  0  0  0  0  0  0
  -25.6730   65.8150   25.3220 Cl  0  0  0  0  0  0  0  0  0  0  0  0
  -22.1370   67.2920   24.7760 N   0  0  0  0  0  0  0  0  0  0  0  0
  -22.8690   66.9630   25.4440 H   0  0  0  0  0  0  0  0  0  0  0  0
  -22.2550   68.2380   24.3500 H   0  0  0  0  0  0  0  0  0  0  0  0
  -18.0500   66.7780   22.4790 N   0  0  0  0  0  0  0  0  0  0  0  0
  -17.5220   67.6460   22.7220 H   0  0  0  0  0  0  0  0  0  0  0  0
  1  6  1  0  0  0  0
  1  2  2  0  0  0  0
  2  3  1  0  0  0  0
  3  4  1  0  0  0  0
  4  8  1  0  0  0  0
  5 17  1  0  0  0  0
  5  4  2  0  0  0  0
  6  5  1  0  0  0  0
  7  6  1  0  0  0  0
  9  8  2  0  0  0  0
  9 10  1  0  0  0  0
 10 15  2  0  0  0  0
 10 11  1  0  0  0  0
 11 12  2  0  0  0  0
 12 13  1  0  0  0  0
 14 13  2  0  0  0  0
 15 14  1  0  0  0  0
 16 15  1  0  0  0  0
 17 18  1  0  0  0  0
 19 17  1  0  0  0  0
 20 21  1  0  0  0  0
 20  1  1  0  0  0  0
M  END
>  <REMARK>
 VINA RESULT:      -7.0      4.805      7.393
  4 active torsions:
  status: ('A' for Active; 'I' for Inactive)
    1  A    between atoms: N1_2  and  C1_3 
    2  A    between atoms: C4_6  and  N2_7 
    3  A    between atoms: N3_8  and  C5_9 
    4  A    between atoms: C11_16  and  N4_17 

>  <TORSDO>
F 4

$$$$
../pdbqt/decoy.vina_out.40.pdbqt
 OpenBabel06052021513D

 21 22  0  0  0  0  0  0  0  0999 V2000
  -19.4860   67.0790   24.8760 C   0  0  0  0  0  0  0  0  0  0  0  0
  -20.3510   68.0060   25.4700 C   0  0  0  0  0  0  0  0  0  0  0  0
  -21.6810   67.6570   25.6990 C   0  0  0  0  0  0  0  0  0  0  0  0
  -22.1470   66.3830   25.3350 C   0  0  0  0  0  0  0  0  0  0  0  0
  -21.2490   65.4770   24.7400 C   0  0  0  0  0  0  0  0  0  0  0  0
  -19.9510   65.8460   24.5270 N   0  0  0  0  0  0  0  0  0  0  0  0
  -19.2960   65.1630   24.0850 H   0  0  0  0  0  0  0  0  0  0  0  0
  -23.5100   65.9980   25.5590 N   0  0  0  0  0  0  0  0  0  0  0  0
  -24.4090   66.1350   24.6680 N   0  0  0  0  0  0  0  0  0  0  0  0
  -25.7720   65.7500   24.8930 C   0  0  0  0  0  0  0  0  0  0  0  0
  -26.1510   65.0420   26.0480 C   0  0  0  0  0  0  0  0  0  0  0  0
  -27.4860   64.6780   26.2460 C   0  0  0  0  0  0  0  0  0  0  0  0
  -28.4520   65.0160   25.2960 C   0  0  0  0  0  0  0  0  0  0  0  0
  -28.0860   65.7200   24.1460 C   0  0  0  0  0  0  0  0  0  0  0  0
  -26.7500   66.0870   23.9410 C   0  0  0  0  0  0  0  0  0  0  0  0
  -26.3210   66.9720   22.4830 Cl  0  0  0  0  0  0  0  0  0  0  0  0
  -21.6810   64.1670   24.3520 N   0  0  0  0  0  0  0  0  0  0  0  0
  -21.3840   63.3140   24.8750 H   0  0  0  0  0  0  0  0  0  0  0  0
  -22.3090   64.0400   23.5280 H   0  0  0  0  0  0  0  0  0  0  0  0
  -18.2450   67.3830   24.6540 N   0  0  0  0  0  0  0  0  0  0  0  0
  -17.8670   67.5320   23.6920 H   0  0  0  0  0  0  0  0  0  0  0  0
  1  2  2  0  0  0  0
  2  3  1  0  0  0  0
  4  8  1  0  0  0  0
  4  3  1  0  0  0  0
  5  4  2  0  0  0  0
  6  5  1  0  0  0  0
  6  1  1  0  0  0  0
  7  6  1  0  0  0  0
  9 10  1  0  0  0  0
  9  8  2  0  0  0  0
 10 11  2  0  0  0  0
 11 12  1  0  0  0  0
 13 12  2  0  0  0  0
 14 13  1  0  0  0  0
 15 14  2  0  0  0  0
 15 10  1  0  0  0  0
 16 15  1  0  0  0  0
 17  5  1  0  0  0  0
 17 18  1  0  0  0  0
 19 17  1  0  0  0  0
 20  1  1  0  0  0  0
 21 20  1  0  0  0  0
M  END
>  <REMARK>
 VINA RESULT:      -6.8      4.215      6.425
  4 active torsions:
  status: ('A' for Active; 'I' for Inactive)
    1  A    between atoms: N1_2  and  C1_3 
    2  A    between atoms: C4_6  and  N2_7 
    3  A    between atoms: N3_8  and  C5_9 
    4  A    between atoms: C11_16  and  N4_17 

>  <TORSDO>
F 4

$$$$
../pdbqt/decoy.vina_out.40.pdbqt
 OpenBabel06052021513D

 21 22  0  0  0  0  0  0  0  0999 V2000
  -29.0330   65.2320   24.2200 C   0  0  0  0  0  0  0  0  0  0  0  0
  -28.4570   64.8510   25.4390 C   0  0  0  0  0  0  0  0  0  0  0  0
  -27.1230   65.1640   25.6950 C   0  0  0  0  0  0  0  0  0  0  0  0
  -26.3650   65.8550   24.7370 C   0  0  0  0  0  0  0  0  0  0  0  0
  -26.9770   66.2210   23.5230 C   0  0  0  0  0  0  0  0  0  0  0  0
  -28.2860   65.9020   23.2980 N   0  0  0  0  0  0  0  0  0  0  0  0
  -28.7270   66.1800   22.3920 H   0  0  0  0  0  0  0  0  0  0  0  0
  -24.9910   66.1880   24.9750 N   0  0  0  0  0  0  0  0  0  0  0  0
  -24.0340   65.4440   24.5860 N   0  0  0  0  0  0  0  0  0  0  0  0
  -22.6600   65.7780   24.8260 C   0  0  0  0  0  0  0  0  0  0  0  0
  -22.2780   67.0810   25.1940 C   0  0  0  0  0  0  0  0  0  0  0  0
  -20.9330   67.3830   25.4220 C   0  0  0  0  0  0  0  0  0  0  0  0
  -19.9590   66.3910   25.2860 C   0  0  0  0  0  0  0  0  0  0  0  0
  -20.3290   65.0940   24.9210 C   0  0  0  0  0  0  0  0  0  0  0  0
  -21.6750   64.7840   24.6900 C   0  0  0  0  0  0  0  0  0  0  0  0
  -22.1090   63.1430   24.2320 Cl  0  0  0  0  0  0  0  0  0  0  0  0
  -26.2410   66.9270   22.5160 N   0  0  0  0  0  0  0  0  0  0  0  0
  -25.8390   67.8740   22.6920 H   0  0  0  0  0  0  0  0  0  0  0  0
  -26.0920   66.5010   21.5740 H   0  0  0  0  0  0  0  0  0  0  0  0
  -30.2730   64.9510   23.9610 N   0  0  0  0  0  0  0  0  0  0  0  0
  -30.7700   65.3280   23.1220 H   0  0  0  0  0  0  0  0  0  0  0  0
  1  2  1  0  0  0  0
  2  3  2  0  0  0  0
  4  8  1  0  0  0  0
  4  3  1  0  0  0  0
  5  4  2  0  0  0  0
  6  5  1  0  0  0  0
  6  1  1  0  0  0  0
  7  6  1  0  0  0  0
  9 10  1  0  0  0  0
  9  8  2  0  0  0  0
 10 11  1  0  0  0  0
 11 12  2  0  0  0  0
 13 12  1  0  0  0  0
 14 13  2  0  0  0  0
 15 10  2  0  0  0  0
 15 14  1  0  0  0  0
 16 15  1  0  0  0  0
 17 18  1  0  0  0  0
 17  5  1  0  0  0  0
 19 17  1  0  0  0  0
 20  1  2  0  0  0  0
 21 20  1  0  0  0  0
M  END
>  <REMARK>
 VINA RESULT:      -6.7      4.135      5.900
  4 active torsions:
  status: ('A' for Active; 'I' for Inactive)
    1  A    between atoms: N1_2  and  C1_3 
    2  A    between atoms: C4_6  and  N2_7 
    3  A    between atoms: N3_8  and  C5_9 
    4  A    between atoms: C11_16  and  N4_17 

>  <TORSDO>
F 4

$$$$
../pdbqt/decoy.vina_out.40.pdbqt
 OpenBabel06052021513D

 21 22  0  0  0  0  0  0  0  0999 V2000
  -22.1660   62.8840   29.4360 C   0  0  0  0  0  0  0  0  0  0  0  0
  -21.6460   63.7980   28.5110 C   0  0  0  0  0  0  0  0  0  0  0  0
  -22.4430   64.2300   27.4520 C   0  0  0  0  0  0  0  0  0  0  0  0
  -23.7560   63.7510   27.3160 C   0  0  0  0  0  0  0  0  0  0  0  0
  -24.2440   62.8340   28.2650 C   0  0  0  0  0  0  0  0  0  0  0  0
  -23.4420   62.4260   29.2920 N   0  0  0  0  0  0  0  0  0  0  0  0
  -23.8180   61.7440   29.9900 H   0  0  0  0  0  0  0  0  0  0  0  0
  -24.5950   64.1800   26.2360 N   0  0  0  0  0  0  0  0  0  0  0  0
  -25.5630   64.9880   26.4060 N   0  0  0  0  0  0  0  0  0  0  0  0
  -26.4020   65.4150   25.3250 C   0  0  0  0  0  0  0  0  0  0  0  0
  -25.9100   66.2450   24.3010 C   0  0  0  0  0  0  0  0  0  0  0  0
  -26.7470   66.6480   23.2570 C   0  0  0  0  0  0  0  0  0  0  0  0
  -28.0790   66.2290   23.2250 C   0  0  0  0  0  0  0  0  0  0  0  0
  -28.5770   65.4050   24.2370 C   0  0  0  0  0  0  0  0  0  0  0  0
  -27.7440   64.9970   25.2860 C   0  0  0  0  0  0  0  0  0  0  0  0
  -28.4000   63.9600   26.5450 Cl  0  0  0  0  0  0  0  0  0  0  0  0
  -25.5770   62.3180   28.1650 N   0  0  0  0  0  0  0  0  0  0  0  0
  -26.2860   62.4810   28.9130 H   0  0  0  0  0  0  0  0  0  0  0  0
  -25.8670   61.7610   27.3300 H   0  0  0  0  0  0  0  0  0  0  0  0
  -21.4420   62.4680   30.4290 N   0  0  0  0  0  0  0  0  0  0  0  0
  -21.5150   62.8790   31.3880 H   0  0  0  0  0  0  0  0  0  0  0  0
  1 20  1  0  0  0  0
  2  1  2  0  0  0  0
  3  2  1  0  0  0  0
  4  3  1  0  0  0  0
  4  5  2  0  0  0  0
  5  6  1  0  0  0  0
  6  1  1  0  0  0  0
  6  7  1  0  0  0  0
  8  9  2  0  0  0  0
  8  4  1  0  0  0  0
 10  9  1  0  0  0  0
 11 10  2  0  0  0  0
 12 11  1  0  0  0  0
 13 12  2  0  0  0  0
 13 14  1  0  0  0  0
 14 15  2  0  0  0  0
 15 10  1  0  0  0  0
 15 16  1  0  0  0  0
 17  5  1  0  0  0  0
 17 18  1  0  0  0  0
 19 17  1  0  0  0  0
 20 21  1  0  0  0  0
M  END
>  <REMARK>
 VINA RESULT:      -6.7      2.554      2.963
  4 active torsions:
  status: ('A' for Active; 'I' for Inactive)
    1  A    between atoms: N1_2  and  C1_3 
    2  A    between atoms: C4_6  and  N2_7 
    3  A    between atoms: N3_8  and  C5_9 
    4  A    between atoms: C11_16  and  N4_17 

>  <TORSDO>
F 4

$$$$
../pdbqt/decoy.vina_out.40.pdbqt
 OpenBabel06052021513D

 21 22  0  0  0  0  0  0  0  0999 V2000
  -18.0390   62.7920   23.6380 C   0  0  0  0  0  0  0  0  0  0  0  0
  -18.1850   63.0390   25.0090 C   0  0  0  0  0  0  0  0  0  0  0  0
  -19.4520   62.9800   25.5860 C   0  0  0  0  0  0  0  0  0  0  0  0
  -20.5720   62.6740   24.7960 C   0  0  0  0  0  0  0  0  0  0  0  0
  -20.3870   62.4320   23.4220 C   0  0  0  0  0  0  0  0  0  0  0  0
  -19.1340   62.4970   22.8830 N   0  0  0  0  0  0  0  0  0  0  0  0
  -19.0110   62.3140   21.8600 H   0  0  0  0  0  0  0  0  0  0  0  0
  -21.8860   62.6080   25.3640 N   0  0  0  0  0  0  0  0  0  0  0  0
  -22.4380   63.6120   25.9210 N   0  0  0  0  0  0  0  0  0  0  0  0
  -23.7520   63.5440   26.4900 C   0  0  0  0  0  0  0  0  0  0  0  0
  -24.1160   62.5080   27.3690 C   0  0  0  0  0  0  0  0  0  0  0  0
  -25.4030   62.4620   27.9110 C   0  0  0  0  0  0  0  0  0  0  0  0
  -26.3370   63.4470   27.5820 C   0  0  0  0  0  0  0  0  0  0  0  0
  -25.9850   64.4810   26.7100 C   0  0  0  0  0  0  0  0  0  0  0  0
  -24.6970   64.5320   26.1620 C   0  0  0  0  0  0  0  0  0  0  0  0
  -24.2850   65.8450   25.0680 Cl  0  0  0  0  0  0  0  0  0  0  0  0
  -21.5020   62.1180   22.5780 N   0  0  0  0  0  0  0  0  0  0  0  0
  -21.5690   61.2060   22.0740 H   0  0  0  0  0  0  0  0  0  0  0  0
  -22.2780   62.8050   22.4490 H   0  0  0  0  0  0  0  0  0  0  0  0
  -16.8680   62.8410   23.0800 N   0  0  0  0  0  0  0  0  0  0  0  0
  -15.9930   62.5830   23.5890 H   0  0  0  0  0  0  0  0  0  0  0  0
  1  2  2  0  0  0  0
  2  3  1  0  0  0  0
  4  8  1  0  0  0  0
  4  3  1  0  0  0  0
  5  4  2  0  0  0  0
  6  5  1  0  0  0  0
  6  1  1  0  0  0  0
  7  6  1  0  0  0  0
  8  9  2  0  0  0  0
  9 10  1  0  0  0  0
 10 11  1  0  0  0  0
 11 12  2  0  0  0  0
 13 12  1  0  0  0  0
 14 13  2  0  0  0  0
 15 10  2  0  0  0  0
 15 14  1  0  0  0  0
 16 15  1  0  0  0  0
 17  5  1  0  0  0  0
 18 17  1  0  0  0  0
 19 17  1  0  0  0  0
 20 21  1  0  0  0  0
 20  1  1  0  0  0  0
M  END
>  <REMARK>
 VINA RESULT:      -6.5      5.650      7.457
  4 active torsions:
  status: ('A' for Active; 'I' for Inactive)
    1  A    between atoms: N1_2  and  C1_3 
    2  A    between atoms: C4_6  and  N2_7 
    3  A    between atoms: N3_8  and  C5_9 
    4  A    between atoms: C11_16  and  N4_17 

>  <TORSDO>
F 4

$$$$
