../pdbqt/decoy.vina_out.47.pdbqt
 OpenBabel06052021513D

 18 19  0  0  0  0  0  0  0  0999 V2000
  -22.5530   65.6230   25.0590 C   0  0  0  0  0  0  0  0  0  0  0  0
  -22.2290   66.9880   25.1940 C   0  0  0  0  0  0  0  0  0  0  0  0
  -20.9600   67.4550   24.8490 C   0  0  0  0  0  0  0  0  0  0  0  0
  -19.9980   66.5700   24.3650 C   0  0  0  0  0  0  0  0  0  0  0  0
  -18.7360   67.0390   24.0220 O   0  0  0  0  0  0  0  0  0  0  0  0
  -20.3010   65.2150   24.2250 C   0  0  0  0  0  0  0  0  0  0  0  0
  -21.5770   64.7190   24.5680 C   0  0  0  0  0  0  0  0  0  0  0  0
  -23.8610   65.1540   25.4180 N   0  0  0  0  0  0  0  0  0  0  0  0
  -24.9130   65.8430   25.2210 N   0  0  0  0  0  0  0  0  0  0  0  0
  -26.2160   65.3700   25.5810 C   0  0  0  0  0  0  0  0  0  0  0  0
  -27.3690   65.7700   24.8780 C   0  0  0  0  0  0  0  0  0  0  0  0
  -28.6250   65.2870   25.2580 C   0  0  0  0  0  0  0  0  0  0  0  0
  -28.7410   64.4050   26.3360 C   0  0  0  0  0  0  0  0  0  0  0  0
  -27.6000   64.0050   27.0380 C   0  0  0  0  0  0  0  0  0  0  0  0
  -26.3420   64.4860   26.6610 C   0  0  0  0  0  0  0  0  0  0  0  0
  -21.8520   63.2640   24.4010 C   0  0  0  0  0  0  0  0  0  0  0  0
  -21.5110   62.4470   25.2960 O   0  0  0  0  0  0  0  0  0  0  0  0
  -22.4860   62.7740   23.2650 O   0  0  0  0  0  0  0  0  0  0  0  0
  1  2  1  0  0  0  0
  1  8  1  0  0  0  0
  3  2  2  0  0  0  0
  4  3  1  0  0  0  0
  5  4  1  0  0  0  0
  6  4  2  0  0  0  0
  6  7  1  0  0  0  0
  7  1  2  0  0  0  0
  9  8  2  0  0  0  0
  9 10  1  0  0  0  0
 10 15  2  0  0  0  0
 11 12  2  0  0  0  0
 11 10  1  0  0  0  0
 12 13  1  0  0  0  0
 13 14  2  0  0  0  0
 15 14  1  0  0  0  0
 16  7  1  0  0  0  0
 16 17  1  0  0  0  0
 18 16  2  0  0  0  0
M  END
>  <MODEL>
1

>  <REMARK>
 VINA RESULT:      -7.3      0.000      0.000
  3 active torsions:
  status: ('A' for Active; 'I' for Inactive)
    1  A    between atoms: C4_4  and  N1_5 
    2  A    between atoms: N2_6  and  C5_7 
    3  A    between atoms: C10_13  and  C11_14 

>  <TORSDO>
F 3

$$$$
../pdbqt/decoy.vina_out.47.pdbqt
 OpenBabel06052021513D

 18 19  0  0  0  0  0  0  0  0999 V2000
  -25.4890   65.8480   25.1190 C   0  0  0  0  0  0  0  0  0  0  0  0
  -25.7880   64.9560   26.1680 C   0  0  0  0  0  0  0  0  0  0  0  0
  -27.0740   64.4340   26.3140 C   0  0  0  0  0  0  0  0  0  0  0  0
  -28.0790   64.7930   25.4160 C   0  0  0  0  0  0  0  0  0  0  0  0
  -29.3570   64.2710   25.5640 O   0  0  0  0  0  0  0  0  0  0  0  0
  -27.8010   65.6760   24.3720 C   0  0  0  0  0  0  0  0  0  0  0  0
  -26.5090   66.2170   24.2040 C   0  0  0  0  0  0  0  0  0  0  0  0
  -24.1630   66.3790   24.9810 N   0  0  0  0  0  0  0  0  0  0  0  0
  -23.1320   65.7670   25.4100 N   0  0  0  0  0  0  0  0  0  0  0  0
  -21.8120   66.3020   25.2680 C   0  0  0  0  0  0  0  0  0  0  0  0
  -20.7600   65.5410   24.7240 C   0  0  0  0  0  0  0  0  0  0  0  0
  -19.4820   66.0960   24.6000 C   0  0  0  0  0  0  0  0  0  0  0  0
  -19.2450   67.4090   25.0160 C   0  0  0  0  0  0  0  0  0  0  0  0
  -20.2860   68.1700   25.5580 C   0  0  0  0  0  0  0  0  0  0  0  0
  -21.5640   67.6180   25.6820 C   0  0  0  0  0  0  0  0  0  0  0  0
  -26.2620   67.1550   23.0740 C   0  0  0  0  0  0  0  0  0  0  0  0
  -26.4500   66.7810   21.8860 O   0  0  0  0  0  0  0  0  0  0  0  0
  -25.8220   68.4550   23.2960 O   0  0  0  0  0  0  0  0  0  0  0  0
  1  2  2  0  0  0  0
  2  3  1  0  0  0  0
  4  5  1  0  0  0  0
  4  3  2  0  0  0  0
  6  4  1  0  0  0  0
  7  6  2  0  0  0  0
  7  1  1  0  0  0  0
  8  1  1  0  0  0  0
  8  9  2  0  0  0  0
 10  9  1  0  0  0  0
 10 15  2  0  0  0  0
 11 10  1  0  0  0  0
 12 11  2  0  0  0  0
 12 13  1  0  0  0  0
 13 14  2  0  0  0  0
 14 15  1  0  0  0  0
 16 18  1  0  0  0  0
 16  7  1  0  0  0  0
 17 16  2  0  0  0  0
M  END
>  <REMARK>
 VINA RESULT:      -7.3      2.977      6.858
  3 active torsions:
  status: ('A' for Active; 'I' for Inactive)
    1  A    between atoms: C4_4  and  N1_5 
    2  A    between atoms: N2_6  and  C5_7 
    3  A    between atoms: C10_13  and  C11_14 

>  <TORSDO>
F 3

$$$$
../pdbqt/decoy.vina_out.47.pdbqt
 OpenBabel06052021513D

 18 19  0  0  0  0  0  0  0  0999 V2000
  -22.5000   65.0720   25.1830 C   0  0  0  0  0  0  0  0  0  0  0  0
  -22.2700   66.4480   25.3840 C   0  0  0  0  0  0  0  0  0  0  0  0
  -21.1220   67.0590   24.8780 C   0  0  0  0  0  0  0  0  0  0  0  0
  -20.1880   66.3080   24.1650 C   0  0  0  0  0  0  0  0  0  0  0  0
  -19.0460   66.9190   23.6630 O   0  0  0  0  0  0  0  0  0  0  0  0
  -20.3990   64.9440   23.9570 C   0  0  0  0  0  0  0  0  0  0  0  0
  -21.5520   64.3040   24.4590 C   0  0  0  0  0  0  0  0  0  0  0  0
  -23.6840   64.4550   25.7080 N   0  0  0  0  0  0  0  0  0  0  0  0
  -23.7480   63.9920   26.8920 N   0  0  0  0  0  0  0  0  0  0  0  0
  -24.9330   63.3780   27.4110 C   0  0  0  0  0  0  0  0  0  0  0  0
  -26.2130   63.9010   27.1470 C   0  0  0  0  0  0  0  0  0  0  0  0
  -27.3490   63.2750   27.6690 C   0  0  0  0  0  0  0  0  0  0  0  0
  -27.2180   62.1270   28.4550 C   0  0  0  0  0  0  0  0  0  0  0  0
  -25.9490   61.6030   28.7210 C   0  0  0  0  0  0  0  0  0  0  0  0
  -24.8110   62.2270   28.2000 C   0  0  0  0  0  0  0  0  0  0  0  0
  -21.7320   62.8460   24.2110 C   0  0  0  0  0  0  0  0  0  0  0  0
  -21.3570   62.0050   25.0710 O   0  0  0  0  0  0  0  0  0  0  0  0
  -22.3110   62.3790   23.0370 O   0  0  0  0  0  0  0  0  0  0  0  0
  1  2  1  0  0  0  0
  1  8  1  0  0  0  0
  3  2  2  0  0  0  0
  4  3  1  0  0  0  0
  5  4  1  0  0  0  0
  6  4  2  0  0  0  0
  6  7  1  0  0  0  0
  7  1  2  0  0  0  0
  8  9  2  0  0  0  0
  9 10  1  0  0  0  0
 10 15  1  0  0  0  0
 11 10  2  0  0  0  0
 11 12  1  0  0  0  0
 12 13  2  0  0  0  0
 13 14  1  0  0  0  0
 15 14  2  0  0  0  0
 16  7  1  0  0  0  0
 16 17  1  0  0  0  0
 18 16  2  0  0  0  0
M  END
>  <REMARK>
 VINA RESULT:      -7.0      1.472      2.028
  3 active torsions:
  status: ('A' for Active; 'I' for Inactive)
    1  A    between atoms: C4_4  and  N1_5 
    2  A    between atoms: N2_6  and  C5_7 
    3  A    between atoms: C10_13  and  C11_14 

>  <TORSDO>
F 3

$$$$
../pdbqt/decoy.vina_out.47.pdbqt
 OpenBabel06052021513D

 18 19  0  0  0  0  0  0  0  0999 V2000
  -25.1480   65.6290   24.7760 C   0  0  0  0  0  0  0  0  0  0  0  0
  -25.2570   66.5170   23.6870 C   0  0  0  0  0  0  0  0  0  0  0  0
  -26.4840   67.0980   23.3630 C   0  0  0  0  0  0  0  0  0  0  0  0
  -27.6170   66.8040   24.1200 C   0  0  0  0  0  0  0  0  0  0  0  0
  -28.8360   67.3850   23.7950 O   0  0  0  0  0  0  0  0  0  0  0  0
  -27.5270   65.9280   25.2020 C   0  0  0  0  0  0  0  0  0  0  0  0
  -26.2980   65.3270   25.5490 C   0  0  0  0  0  0  0  0  0  0  0  0
  -23.8810   65.0380   25.0990 N   0  0  0  0  0  0  0  0  0  0  0  0
  -23.4220   64.0220   24.4830 N   0  0  0  0  0  0  0  0  0  0  0  0
  -22.1570   63.4360   24.8100 C   0  0  0  0  0  0  0  0  0  0  0  0
  -21.5010   62.5550   23.9290 C   0  0  0  0  0  0  0  0  0  0  0  0
  -20.2660   62.0020   24.2820 C   0  0  0  0  0  0  0  0  0  0  0  0
  -19.6780   62.3220   25.5090 C   0  0  0  0  0  0  0  0  0  0  0  0
  -20.3250   63.1970   26.3870 C   0  0  0  0  0  0  0  0  0  0  0  0
  -21.5600   63.7520   26.0380 C   0  0  0  0  0  0  0  0  0  0  0  0
  -26.2540   64.3980   26.7120 C   0  0  0  0  0  0  0  0  0  0  0  0
  -27.1100   63.4810   26.8260 O   0  0  0  0  0  0  0  0  0  0  0  0
  -25.2780   64.5160   27.6950 O   0  0  0  0  0  0  0  0  0  0  0  0
  1  8  1  0  0  0  0
  1  7  2  0  0  0  0
  2  1  1  0  0  0  0
  3  2  2  0  0  0  0
  3  4  1  0  0  0  0
  4  6  2  0  0  0  0
  5  4  1  0  0  0  0
  6  7  1  0  0  0  0
  7 16  1  0  0  0  0
  9 10  1  0  0  0  0
  9  8  2  0  0  0  0
 10 15  2  0  0  0  0
 11 12  2  0  0  0  0
 11 10  1  0  0  0  0
 12 13  1  0  0  0  0
 13 14  2  0  0  0  0
 15 14  1  0  0  0  0
 16 17  2  0  0  0  0
 16 18  1  0  0  0  0
M  END
>  <REMARK>
 VINA RESULT:      -6.9      3.176      6.233
  3 active torsions:
  status: ('A' for Active; 'I' for Inactive)
    1  A    between atoms: C4_4  and  N1_5 
    2  A    between atoms: N2_6  and  C5_7 
    3  A    between atoms: C10_13  and  C11_14 

>  <TORSDO>
F 3

$$$$
../pdbqt/decoy.vina_out.47.pdbqt
 OpenBabel06052021513D

 18 19  0  0  0  0  0  0  0  0999 V2000
  -25.4860   65.4630   25.6110 C   0  0  0  0  0  0  0  0  0  0  0  0
  -25.0370   66.1770   24.4820 C   0  0  0  0  0  0  0  0  0  0  0  0
  -25.9290   66.5530   23.4770 C   0  0  0  0  0  0  0  0  0  0  0  0
  -27.2800   66.2230   23.5830 C   0  0  0  0  0  0  0  0  0  0  0  0
  -28.1650   66.5990   22.5800 O   0  0  0  0  0  0  0  0  0  0  0  0
  -27.7420   65.5160   24.6940 C   0  0  0  0  0  0  0  0  0  0  0  0
  -26.8590   65.1260   25.7230 C   0  0  0  0  0  0  0  0  0  0  0  0
  -24.5590   65.0830   26.6380 N   0  0  0  0  0  0  0  0  0  0  0  0
  -23.6020   64.2690   26.4300 N   0  0  0  0  0  0  0  0  0  0  0  0
  -22.6800   63.8930   27.4590 C   0  0  0  0  0  0  0  0  0  0  0  0
  -21.3290   63.6180   27.1770 C   0  0  0  0  0  0  0  0  0  0  0  0
  -20.4570   63.2540   28.2070 C   0  0  0  0  0  0  0  0  0  0  0  0
  -20.9230   63.1630   29.5210 C   0  0  0  0  0  0  0  0  0  0  0  0
  -22.2640   63.4340   29.8080 C   0  0  0  0  0  0  0  0  0  0  0  0
  -23.1390   63.7990   28.7790 C   0  0  0  0  0  0  0  0  0  0  0  0
  -27.4010   64.3730   26.8880 C   0  0  0  0  0  0  0  0  0  0  0  0
  -26.9050   63.2600   27.2110 O   0  0  0  0  0  0  0  0  0  0  0  0
  -28.4560   64.8700   27.6430 O   0  0  0  0  0  0  0  0  0  0  0  0
  1  7  1  0  0  0  0
  1  8  1  0  0  0  0
  2  1  2  0  0  0  0
  3  4  2  0  0  0  0
  3  2  1  0  0  0  0
  4  6  1  0  0  0  0
  5  4  1  0  0  0  0
  6  7  2  0  0  0  0
  7 16  1  0  0  0  0
  9  8  2  0  0  0  0
  9 10  1  0  0  0  0
 10 15  1  0  0  0  0
 11 10  2  0  0  0  0
 11 12  1  0  0  0  0
 12 13  2  0  0  0  0
 13 14  1  0  0  0  0
 15 14  2  0  0  0  0
 16 17  2  0  0  0  0
 16 18  1  0  0  0  0
M  END
>  <REMARK>
 VINA RESULT:      -6.9      3.787      6.158
  3 active torsions:
  status: ('A' for Active; 'I' for Inactive)
    1  A    between atoms: C4_4  and  N1_5 
    2  A    between atoms: N2_6  and  C5_7 
    3  A    between atoms: C10_13  and  C11_14 

>  <TORSDO>
F 3

$$$$
../pdbqt/decoy.vina_out.47.pdbqt
 OpenBabel06052021513D

 18 19  0  0  0  0  0  0  0  0999 V2000
  -25.5380   65.8510   25.0880 C   0  0  0  0  0  0  0  0  0  0  0  0
  -26.1000   66.5510   24.0020 C   0  0  0  0  0  0  0  0  0  0  0  0
  -27.4510   66.4070   23.6850 C   0  0  0  0  0  0  0  0  0  0  0  0
  -28.2600   65.5640   24.4460 C   0  0  0  0  0  0  0  0  0  0  0  0
  -29.6050   65.4230   24.1280 O   0  0  0  0  0  0  0  0  0  0  0  0
  -27.7210   64.8630   25.5260 C   0  0  0  0  0  0  0  0  0  0  0  0
  -26.3570   64.9930   25.8650 C   0  0  0  0  0  0  0  0  0  0  0  0
  -24.1460   66.0080   25.4040 N   0  0  0  0  0  0  0  0  0  0  0  0
  -23.3450   66.6610   24.6610 N   0  0  0  0  0  0  0  0  0  0  0  0
  -21.9580   66.8140   24.9820 C   0  0  0  0  0  0  0  0  0  0  0  0
  -21.0150   65.8100   24.6850 C   0  0  0  0  0  0  0  0  0  0  0  0
  -19.6680   65.9940   25.0130 C   0  0  0  0  0  0  0  0  0  0  0  0
  -19.2530   67.1740   25.6350 C   0  0  0  0  0  0  0  0  0  0  0  0
  -20.1840   68.1740   25.9320 C   0  0  0  0  0  0  0  0  0  0  0  0
  -21.5310   67.9930   25.6060 C   0  0  0  0  0  0  0  0  0  0  0  0
  -25.8280   64.2240   27.0260 C   0  0  0  0  0  0  0  0  0  0  0  0
  -26.2320   64.4760   28.1920 O   0  0  0  0  0  0  0  0  0  0  0  0
  -24.8840   63.2180   26.8570 O   0  0  0  0  0  0  0  0  0  0  0  0
  1  8  1  0  0  0  0
  1  7  2  0  0  0  0
  2  1  1  0  0  0  0
  3  2  2  0  0  0  0
  3  4  1  0  0  0  0
  4  6  2  0  0  0  0
  5  4  1  0  0  0  0
  6  7  1  0  0  0  0
  7 16  1  0  0  0  0
  9 10  1  0  0  0  0
  9  8  2  0  0  0  0
 10 15  1  0  0  0  0
 11 10  2  0  0  0  0
 11 12  1  0  0  0  0
 12 13  2  0  0  0  0
 13 14  1  0  0  0  0
 15 14  2  0  0  0  0
 16 17  1  0  0  0  0
 18 16  2  0  0  0  0
M  END
>  <REMARK>
 VINA RESULT:      -6.9      2.666      6.554
  3 active torsions:
  status: ('A' for Active; 'I' for Inactive)
    1  A    between atoms: C4_4  and  N1_5 
    2  A    between atoms: N2_6  and  C5_7 
    3  A    between atoms: C10_13  and  C11_14 

>  <TORSDO>
F 3

$$$$
../pdbqt/decoy.vina_out.47.pdbqt
 OpenBabel06052021513D

 18 19  0  0  0  0  0  0  0  0999 V2000
  -19.9250   63.8830   23.6200 C   0  0  0  0  0  0  0  0  0  0  0  0
  -19.3810   64.6960   22.6060 C   0  0  0  0  0  0  0  0  0  0  0  0
  -18.0360   64.5890   22.2520 C   0  0  0  0  0  0  0  0  0  0  0  0
  -17.2140   63.6710   22.9040 C   0  0  0  0  0  0  0  0  0  0  0  0
  -15.8750   63.5670   22.5500 O   0  0  0  0  0  0  0  0  0  0  0  0
  -17.7350   62.8580   23.9120 C   0  0  0  0  0  0  0  0  0  0  0  0
  -19.0920   62.9480   24.2870 C   0  0  0  0  0  0  0  0  0  0  0  0
  -21.3110   64.0030   23.9750 N   0  0  0  0  0  0  0  0  0  0  0  0
  -21.7200   64.8000   24.8790 N   0  0  0  0  0  0  0  0  0  0  0  0
  -23.1040   64.9150   25.2280 C   0  0  0  0  0  0  0  0  0  0  0  0
  -23.7170   64.0210   26.1270 C   0  0  0  0  0  0  0  0  0  0  0  0
  -25.0710   64.1640   26.4450 C   0  0  0  0  0  0  0  0  0  0  0  0
  -25.8210   65.1940   25.8720 C   0  0  0  0  0  0  0  0  0  0  0  0
  -25.2180   66.0840   24.9780 C   0  0  0  0  0  0  0  0  0  0  0  0
  -23.8640   65.9440   24.6580 C   0  0  0  0  0  0  0  0  0  0  0  0
  -19.6010   62.0590   25.3680 C   0  0  0  0  0  0  0  0  0  0  0  0
  -20.0110   60.8990   25.0960 O   0  0  0  0  0  0  0  0  0  0  0  0
  -19.6380   62.4790   26.6930 O   0  0  0  0  0  0  0  0  0  0  0  0
  1  8  1  0  0  0  0
  1  7  2  0  0  0  0
  2  1  1  0  0  0  0
  3  2  2  0  0  0  0
  3  4  1  0  0  0  0
  4  6  2  0  0  0  0
  5  4  1  0  0  0  0
  6  7  1  0  0  0  0
  7 16  1  0  0  0  0
  8  9  2  0  0  0  0
  9 10  1  0  0  0  0
 10 11  2  0  0  0  0
 11 12  1  0  0  0  0
 13 12  2  0  0  0  0
 14 13  1  0  0  0  0
 15 14  2  0  0  0  0
 15 10  1  0  0  0  0
 16 18  1  0  0  0  0
 17 16  2  0  0  0  0
M  END
>  <REMARK>
 VINA RESULT:      -6.6      2.559      3.730
  3 active torsions:
  status: ('A' for Active; 'I' for Inactive)
    1  A    between atoms: C4_4  and  N1_5 
    2  A    between atoms: N2_6  and  C5_7 
    3  A    between atoms: C10_13  and  C11_14 

>  <TORSDO>
F 3

$$$$
../pdbqt/decoy.vina_out.47.pdbqt
 OpenBabel06052021513D

 18 19  0  0  0  0  0  0  0  0999 V2000
  -20.9360   64.9190   24.3930 C   0  0  0  0  0  0  0  0  0  0  0  0
  -20.4700   66.2380   24.5650 C   0  0  0  0  0  0  0  0  0  0  0  0
  -19.4020   66.7190   23.8080 C   0  0  0  0  0  0  0  0  0  0  0  0
  -18.7830   65.8950   22.8700 C   0  0  0  0  0  0  0  0  0  0  0  0
  -17.7190   66.3780   22.1180 O   0  0  0  0  0  0  0  0  0  0  0  0
  -19.2300   64.5860   22.6860 C   0  0  0  0  0  0  0  0  0  0  0  0
  -20.3080   64.0760   23.4400 C   0  0  0  0  0  0  0  0  0  0  0  0
  -22.0360   64.4340   25.1770 N   0  0  0  0  0  0  0  0  0  0  0  0
  -23.1960   64.9540   25.1240 N   0  0  0  0  0  0  0  0  0  0  0  0
  -24.2900   64.4670   25.9090 C   0  0  0  0  0  0  0  0  0  0  0  0
  -25.5520   65.0900   25.8880 C   0  0  0  0  0  0  0  0  0  0  0  0
  -26.5970   64.5860   26.6680 C   0  0  0  0  0  0  0  0  0  0  0  0
  -26.3930   63.4610   27.4710 C   0  0  0  0  0  0  0  0  0  0  0  0
  -25.1410   62.8380   27.4970 C   0  0  0  0  0  0  0  0  0  0  0  0
  -24.0940   63.3390   26.7180 C   0  0  0  0  0  0  0  0  0  0  0  0
  -20.7490   62.6720   23.2070 C   0  0  0  0  0  0  0  0  0  0  0  0
  -21.8090   62.4370   22.5690 O   0  0  0  0  0  0  0  0  0  0  0  0
  -20.0110   61.5940   23.6830 O   0  0  0  0  0  0  0  0  0  0  0  0
  1  2  1  0  0  0  0
  1  8  1  0  0  0  0
  3  2  2  0  0  0  0
  4  3  1  0  0  0  0
  5  4  1  0  0  0  0
  6  4  2  0  0  0  0
  6  7  1  0  0  0  0
  7  1  2  0  0  0  0
  9  8  2  0  0  0  0
  9 10  1  0  0  0  0
 10 15  1  0  0  0  0
 11 10  2  0  0  0  0
 11 12  1  0  0  0  0
 12 13  2  0  0  0  0
 13 14  1  0  0  0  0
 15 14  2  0  0  0  0
 16  7  1  0  0  0  0
 16 18  1  0  0  0  0
 17 16  2  0  0  0  0
M  END
>  <REMARK>
 VINA RESULT:      -6.6      1.650      2.257
  3 active torsions:
  status: ('A' for Active; 'I' for Inactive)
    1  A    between atoms: C4_4  and  N1_5 
    2  A    between atoms: N2_6  and  C5_7 
    3  A    between atoms: C10_13  and  C11_14 

>  <TORSDO>
F 3

$$$$
../pdbqt/decoy.vina_out.47.pdbqt
 OpenBabel06052021513D

 18 19  0  0  0  0  0  0  0  0999 V2000
  -24.3790   64.2360   26.0770 C   0  0  0  0  0  0  0  0  0  0  0  0
  -24.9190   63.3660   27.0460 C   0  0  0  0  0  0  0  0  0  0  0  0
  -26.2670   63.4410   27.3960 C   0  0  0  0  0  0  0  0  0  0  0  0
  -27.0960   64.3830   26.7880 C   0  0  0  0  0  0  0  0  0  0  0  0
  -28.4380   64.4550   27.1390 O   0  0  0  0  0  0  0  0  0  0  0  0
  -26.5780   65.2530   25.8270 C   0  0  0  0  0  0  0  0  0  0  0  0
  -25.2180   65.1960   25.4550 C   0  0  0  0  0  0  0  0  0  0  0  0
  -22.9900   64.1490   25.7250 N   0  0  0  0  0  0  0  0  0  0  0  0
  -22.5390   63.2620   24.9320 N   0  0  0  0  0  0  0  0  0  0  0  0
  -21.1520   63.1800   24.5840 C   0  0  0  0  0  0  0  0  0  0  0  0
  -20.3250   64.3200   24.5730 C   0  0  0  0  0  0  0  0  0  0  0  0
  -18.9740   64.2020   24.2290 C   0  0  0  0  0  0  0  0  0  0  0  0
  -18.4420   62.9550   23.8950 C   0  0  0  0  0  0  0  0  0  0  0  0
  -19.2590   61.8200   23.9040 C   0  0  0  0  0  0  0  0  0  0  0  0
  -20.6090   61.9340   24.2480 C   0  0  0  0  0  0  0  0  0  0  0  0
  -24.7130   66.1460   24.4250 C   0  0  0  0  0  0  0  0  0  0  0  0
  -23.7280   66.8900   24.6760 O   0  0  0  0  0  0  0  0  0  0  0  0
  -25.3070   66.2370   23.1720 O   0  0  0  0  0  0  0  0  0  0  0  0
  1  2  2  0  0  0  0
  2  3  1  0  0  0  0
  4  5  1  0  0  0  0
  4  3  2  0  0  0  0
  6  4  1  0  0  0  0
  7  6  2  0  0  0  0
  7  1  1  0  0  0  0
  8  1  1  0  0  0  0
  9  8  2  0  0  0  0
 10  9  1  0  0  0  0
 11 10  1  0  0  0  0
 12 11  2  0  0  0  0
 13 14  2  0  0  0  0
 13 12  1  0  0  0  0
 14 15  1  0  0  0  0
 15 10  2  0  0  0  0
 16 17  1  0  0  0  0
 16  7  1  0  0  0  0
 18 16  2  0  0  0  0
M  END
>  <REMARK>
 VINA RESULT:      -6.6      2.805      6.694
  3 active torsions:
  status: ('A' for Active; 'I' for Inactive)
    1  A    between atoms: C4_4  and  N1_5 
    2  A    between atoms: N2_6  and  C5_7 
    3  A    between atoms: C10_13  and  C11_14 

>  <TORSDO>
F 3

$$$$
