../pdbqt/decoy.vina_out.65.pdbqt
 OpenBabel06052021513D

 16 16  0  0  0  0  0  0  0  0999 V2000
  -26.7330   65.8170   24.7050 C   0  0  0  0  0  0  0  0  0  0  0  0
  -27.6940   66.0310   23.8640 N   0  0  0  0  0  0  0  0  0  0  0  0
  -29.0810   65.6100   24.0110 C   0  0  0  0  0  0  0  0  0  0  0  0
  -27.2140   66.7430   22.7550 N   0  0  0  0  0  0  0  0  0  0  0  0
  -25.9490   66.9700   22.9140 C   0  0  0  0  0  0  0  0  0  0  0  0
  -25.5080   66.3980   24.1860 C   0  0  0  0  0  0  0  0  0  0  0  0
  -24.2980   66.3930   24.7520 C   0  0  0  0  0  0  0  0  0  0  0  0
  -26.8650   65.1370   25.9160 O   0  0  0  0  0  0  0  0  0  0  0  0
  -26.5750   64.1730   26.0200 H   0  0  0  0  0  0  0  0  0  0  0  0
  -23.1630   67.0090   24.1250 N   0  0  0  0  0  0  0  0  0  0  0  0
  -23.2950   67.6250   23.2920 H   0  0  0  0  0  0  0  0  0  0  0  0
  -21.8280   66.8070   24.6060 C   0  0  0  0  0  0  0  0  0  0  0  0
  -21.6130   66.0720   25.6090 O   0  0  0  0  0  0  0  0  0  0  0  0
  -20.7300   67.4390   23.9520 N   0  0  0  0  0  0  0  0  0  0  0  0
  -20.8870   68.0500   23.1200 H   0  0  0  0  0  0  0  0  0  0  0  0
  -19.7550   67.2960   24.2970 H   0  0  0  0  0  0  0  0  0  0  0  0
  1  8  1  0  0  0  0
  2  3  1  0  0  0  0
  2  1  1  0  0  0  0
  4  5  2  0  0  0  0
  4  2  1  0  0  0  0
  5  6  1  0  0  0  0
  6  1  2  0  0  0  0
  6  7  1  0  0  0  0
  8  9  1  0  0  0  0
 10 12  1  0  0  0  0
 10  7  1  0  0  0  0
 11 10  1  0  0  0  0
 12 13  2  0  0  0  0
 14 16  1  0  0  0  0
 14 12  1  0  0  0  0
 15 14  1  0  0  0  0
M  END
>  <MODEL>
1

>  <REMARK>
 VINA RESULT:      -6.0      0.000      0.000
  2 active torsions:
  status: ('A' for Active; 'I' for Inactive)
    1  A    between atoms: O1_2  and  C1_3 
    2  A    between atoms: C5_9  and  N3_10 
       I    between atoms: N3_10  and  C6_12 
       I    between atoms: C6_12  and  N4_14 

>  <TORSDO>
F 2

$$$$
../pdbqt/decoy.vina_out.65.pdbqt
 OpenBabel06052021513D

 16 16  0  0  0  0  0  0  0  0999 V2000
  -27.5940   63.8170   27.4950 C   0  0  0  0  0  0  0  0  0  0  0  0
  -26.7060   63.1920   28.2000 N   0  0  0  0  0  0  0  0  0  0  0  0
  -26.9510   62.4130   29.4070 C   0  0  0  0  0  0  0  0  0  0  0  0
  -25.4330   63.3670   27.6370 N   0  0  0  0  0  0  0  0  0  0  0  0
  -25.5380   64.1040   26.5770 C   0  0  0  0  0  0  0  0  0  0  0  0
  -26.9400   64.4700   26.3760 C   0  0  0  0  0  0  0  0  0  0  0  0
  -27.5040   65.2130   25.4190 C   0  0  0  0  0  0  0  0  0  0  0  0
  -28.9600   63.8500   27.7750 O   0  0  0  0  0  0  0  0  0  0  0  0
  -29.3430   64.4540   28.4910 H   0  0  0  0  0  0  0  0  0  0  0  0
  -26.7350   65.8050   24.3620 N   0  0  0  0  0  0  0  0  0  0  0  0
  -25.6950   65.8630   24.4410 H   0  0  0  0  0  0  0  0  0  0  0  0
  -27.3490   66.3300   23.1790 C   0  0  0  0  0  0  0  0  0  0  0  0
  -28.6010   66.2840   23.0330 O   0  0  0  0  0  0  0  0  0  0  0  0
  -26.5450   66.9100   22.1540 N   0  0  0  0  0  0  0  0  0  0  0  0
  -25.5070   66.9570   22.2560 H   0  0  0  0  0  0  0  0  0  0  0  0
  -26.9860   67.2940   21.2890 H   0  0  0  0  0  0  0  0  0  0  0  0
  1  8  1  0  0  0  0
  1  2  1  0  0  0  0
  2  3  1  0  0  0  0
  4  2  1  0  0  0  0
  5  4  2  0  0  0  0
  6  5  1  0  0  0  0
  6  1  2  0  0  0  0
  7  6  1  0  0  0  0
  8  9  1  0  0  0  0
 10 11  1  0  0  0  0
 10  7  1  0  0  0  0
 12 10  1  0  0  0  0
 13 12  2  0  0  0  0
 14 15  1  0  0  0  0
 14 12  1  0  0  0  0
 16 14  1  0  0  0  0
M  END
>  <REMARK>
 VINA RESULT:      -5.9      3.722      5.135
  2 active torsions:
  status: ('A' for Active; 'I' for Inactive)
    1  A    between atoms: O1_2  and  C1_3 
    2  A    between atoms: C5_9  and  N3_10 
       I    between atoms: N3_10  and  C6_12 
       I    between atoms: C6_12  and  N4_14 

>  <TORSDO>
F 2

$$$$
../pdbqt/decoy.vina_out.65.pdbqt
 OpenBabel06052021513D

 16 16  0  0  0  0  0  0  0  0999 V2000
  -27.4440   66.3340   24.1520 C   0  0  0  0  0  0  0  0  0  0  0  0
  -26.2180   66.7390   24.0620 N   0  0  0  0  0  0  0  0  0  0  0  0
  -25.7030   67.7360   23.1320 C   0  0  0  0  0  0  0  0  0  0  0  0
  -25.4200   66.0720   25.0040 N   0  0  0  0  0  0  0  0  0  0  0  0
  -26.1600   65.2520   25.6790 C   0  0  0  0  0  0  0  0  0  0  0  0
  -27.5400   65.3350   25.2020 C   0  0  0  0  0  0  0  0  0  0  0  0
  -28.6290   64.6750   25.6060 C   0  0  0  0  0  0  0  0  0  0  0  0
  -28.4990   66.7910   23.3630 O   0  0  0  0  0  0  0  0  0  0  0  0
  -28.4090   67.6100   22.7740 H   0  0  0  0  0  0  0  0  0  0  0  0
  -28.5840   63.7060   26.6630 N   0  0  0  0  0  0  0  0  0  0  0  0
  -28.3220   62.7170   26.4550 H   0  0  0  0  0  0  0  0  0  0  0  0
  -28.8890   64.0500   28.0200 C   0  0  0  0  0  0  0  0  0  0  0  0
  -29.2110   65.2300   28.3250 O   0  0  0  0  0  0  0  0  0  0  0  0
  -28.8310   63.0530   29.0390 N   0  0  0  0  0  0  0  0  0  0  0  0
  -28.5660   62.0700   28.8060 H   0  0  0  0  0  0  0  0  0  0  0  0
  -29.0520   63.2960   30.0300 H   0  0  0  0  0  0  0  0  0  0  0  0
  1  6  2  0  0  0  0
  2  1  1  0  0  0  0
  2  4  1  0  0  0  0
  3  2  1  0  0  0  0
  4  5  2  0  0  0  0
  6  7  1  0  0  0  0
  6  5  1  0  0  0  0
  7 10  1  0  0  0  0
  8  1  1  0  0  0  0
  9  8  1  0  0  0  0
 10 12  1  0  0  0  0
 11 10  1  0  0  0  0
 12 13  2  0  0  0  0
 12 14  1  0  0  0  0
 14 16  1  0  0  0  0
 15 14  1  0  0  0  0
M  END
>  <REMARK>
 VINA RESULT:      -5.8      3.330      5.575
  2 active torsions:
  status: ('A' for Active; 'I' for Inactive)
    1  A    between atoms: O1_2  and  C1_3 
    2  A    between atoms: C5_9  and  N3_10 
       I    between atoms: N3_10  and  C6_12 
       I    between atoms: C6_12  and  N4_14 

>  <TORSDO>
F 2

$$$$
../pdbqt/decoy.vina_out.65.pdbqt
 OpenBabel06052021513D

 16 16  0  0  0  0  0  0  0  0999 V2000
  -23.0830   65.8040   26.4620 C   0  0  0  0  0  0  0  0  0  0  0  0
  -23.3390   65.0920   27.5120 N   0  0  0  0  0  0  0  0  0  0  0  0
  -22.5120   64.9850   28.7070 C   0  0  0  0  0  0  0  0  0  0  0  0
  -24.5550   64.4100   27.3480 N   0  0  0  0  0  0  0  0  0  0  0  0
  -25.0510   64.7070   26.1890 C   0  0  0  0  0  0  0  0  0  0  0  0
  -24.1560   65.6350   25.4980 C   0  0  0  0  0  0  0  0  0  0  0  0
  -24.2680   66.1980   24.2920 C   0  0  0  0  0  0  0  0  0  0  0  0
  -21.9540   66.6050   26.2930 O   0  0  0  0  0  0  0  0  0  0  0  0
  -21.7610   67.3900   26.9020 H   0  0  0  0  0  0  0  0  0  0  0  0
  -25.3900   65.9410   23.4340 N   0  0  0  0  0  0  0  0  0  0  0  0
  -25.6710   64.9590   23.2190 H   0  0  0  0  0  0  0  0  0  0  0  0
  -26.1550   67.0020   22.8500 C   0  0  0  0  0  0  0  0  0  0  0  0
  -25.8590   68.2070   23.0770 O   0  0  0  0  0  0  0  0  0  0  0  0
  -27.2630   66.7010   22.0020 N   0  0  0  0  0  0  0  0  0  0  0  0
  -27.5240   65.7100   21.8020 H   0  0  0  0  0  0  0  0  0  0  0  0
  -27.8250   67.4690   21.5730 H   0  0  0  0  0  0  0  0  0  0  0  0
  1  2  1  0  0  0  0
  2  3  1  0  0  0  0
  4  2  1  0  0  0  0
  5  4  2  0  0  0  0
  6  5  1  0  0  0  0
  6  1  2  0  0  0  0
  7  6  1  0  0  0  0
  8  1  1  0  0  0  0
  8  9  1  0  0  0  0
 10  7  1  0  0  0  0
 11 10  1  0  0  0  0
 12 13  2  0  0  0  0
 12 10  1  0  0  0  0
 14 12  1  0  0  0  0
 15 14  1  0  0  0  0
 16 14  1  0  0  0  0
M  END
>  <REMARK>
 VINA RESULT:      -5.5      2.752      5.006
  2 active torsions:
  status: ('A' for Active; 'I' for Inactive)
    1  A    between atoms: O1_2  and  C1_3 
    2  A    between atoms: C5_9  and  N3_10 
       I    between atoms: N3_10  and  C6_12 
       I    between atoms: C6_12  and  N4_14 

>  <TORSDO>
F 2

$$$$
../pdbqt/decoy.vina_out.65.pdbqt
 OpenBabel06052021513D

 16 16  0  0  0  0  0  0  0  0999 V2000
  -25.4490   66.6330   23.7560 C   0  0  0  0  0  0  0  0  0  0  0  0
  -26.5770   66.0860   24.0750 N   0  0  0  0  0  0  0  0  0  0  0  0
  -27.8160   66.1490   23.3100 C   0  0  0  0  0  0  0  0  0  0  0  0
  -26.4540   65.4010   25.2930 N   0  0  0  0  0  0  0  0  0  0  0  0
  -25.2400   65.5270   25.7270 C   0  0  0  0  0  0  0  0  0  0  0  0
  -24.4660   66.3330   24.7820 C   0  0  0  0  0  0  0  0  0  0  0  0
  -23.1860   66.7130   24.8250 C   0  0  0  0  0  0  0  0  0  0  0  0
  -25.2210   67.3880   22.6050 O   0  0  0  0  0  0  0  0  0  0  0  0
  -24.4510   68.0420   22.5400 H   0  0  0  0  0  0  0  0  0  0  0  0
  -22.3190   66.3440   25.9070 N   0  0  0  0  0  0  0  0  0  0  0  0
  -22.3670   65.3820   26.3120 H   0  0  0  0  0  0  0  0  0  0  0  0
  -21.3710   67.2610   26.4660 C   0  0  0  0  0  0  0  0  0  0  0  0
  -21.2720   68.4350   26.0140 O   0  0  0  0  0  0  0  0  0  0  0  0
  -20.5290   66.8510   27.5420 N   0  0  0  0  0  0  0  0  0  0  0  0
  -20.5950   65.8840   27.9290 H   0  0  0  0  0  0  0  0  0  0  0  0
  -19.8360   67.5150   27.9530 H   0  0  0  0  0  0  0  0  0  0  0  0
  1  2  1  0  0  0  0
  1  6  2  0  0  0  0
  2  4  1  0  0  0  0
  3  2  1  0  0  0  0
  4  5  2  0  0  0  0
  6  7  1  0  0  0  0
  6  5  1  0  0  0  0
  7 10  1  0  0  0  0
  8  1  1  0  0  0  0
  9  8  1  0  0  0  0
 10 11  1  0  0  0  0
 10 12  1  0  0  0  0
 12 14  1  0  0  0  0
 13 12  2  0  0  0  0
 14 15  1  0  0  0  0
 14 16  1  0  0  0  0
M  END
>  <REMARK>
 VINA RESULT:      -5.5      2.197      2.501
  2 active torsions:
  status: ('A' for Active; 'I' for Inactive)
    1  A    between atoms: O1_2  and  C1_3 
    2  A    between atoms: C5_9  and  N3_10 
       I    between atoms: N3_10  and  C6_12 
       I    between atoms: C6_12  and  N4_14 

>  <TORSDO>
F 2

$$$$
../pdbqt/decoy.vina_out.65.pdbqt
 OpenBabel06052021513D

 16 16  0  0  0  0  0  0  0  0999 V2000
  -25.9250   64.2480   27.6650 C   0  0  0  0  0  0  0  0  0  0  0  0
  -26.7350   63.5150   28.3580 N   0  0  0  0  0  0  0  0  0  0  0  0
  -26.4530   62.8950   29.6470 C   0  0  0  0  0  0  0  0  0  0  0  0
  -27.9610   63.3850   27.6880 N   0  0  0  0  0  0  0  0  0  0  0  0
  -27.9050   64.0440   26.5750 C   0  0  0  0  0  0  0  0  0  0  0  0
  -26.5890   64.6690   26.4440 C   0  0  0  0  0  0  0  0  0  0  0  0
  -26.0950   65.4330   25.4660 C   0  0  0  0  0  0  0  0  0  0  0  0
  -24.6220   64.5780   28.0390 O   0  0  0  0  0  0  0  0  0  0  0  0
  -24.3780   65.5070   28.3580 H   0  0  0  0  0  0  0  0  0  0  0  0
  -26.8660   65.7750   24.3050 N   0  0  0  0  0  0  0  0  0  0  0  0
  -27.8850   65.5500   24.2680 H   0  0  0  0  0  0  0  0  0  0  0  0
  -26.2800   66.4260   23.1700 C   0  0  0  0  0  0  0  0  0  0  0  0
  -25.0540   66.7200   23.1630 O   0  0  0  0  0  0  0  0  0  0  0  0
  -27.0850   66.7470   22.0370 N   0  0  0  0  0  0  0  0  0  0  0  0
  -28.1020   66.5110   22.0240 H   0  0  0  0  0  0  0  0  0  0  0  0
  -26.6650   67.2210   21.2070 H   0  0  0  0  0  0  0  0  0  0  0  0
  1  8  1  0  0  0  0
  1  2  1  0  0  0  0
  2  3  1  0  0  0  0
  4  2  1  0  0  0  0
  5  4  2  0  0  0  0
  6  5  1  0  0  0  0
  6  1  2  0  0  0  0
  7  6  1  0  0  0  0
  8  9  1  0  0  0  0
 10  7  1  0  0  0  0
 11 10  1  0  0  0  0
 12 10  1  0  0  0  0
 13 12  2  0  0  0  0
 14 12  1  0  0  0  0
 15 14  1  0  0  0  0
 16 14  1  0  0  0  0
M  END
>  <REMARK>
 VINA RESULT:      -5.5      3.326      4.754
  2 active torsions:
  status: ('A' for Active; 'I' for Inactive)
    1  A    between atoms: O1_2  and  C1_3 
    2  A    between atoms: C5_9  and  N3_10 
       I    between atoms: N3_10  and  C6_12 
       I    between atoms: C6_12  and  N4_14 

>  <TORSDO>
F 2

$$$$
../pdbqt/decoy.vina_out.65.pdbqt
 OpenBabel06052021513D

 16 16  0  0  0  0  0  0  0  0999 V2000
  -23.4860   66.1680   24.9670 C   0  0  0  0  0  0  0  0  0  0  0  0
  -22.7770   65.4960   25.8160 N   0  0  0  0  0  0  0  0  0  0  0  0
  -21.3330   65.5780   25.9940 C   0  0  0  0  0  0  0  0  0  0  0  0
  -23.6020   64.6460   26.5680 N   0  0  0  0  0  0  0  0  0  0  0  0
  -24.8280   64.7980   26.1800 C   0  0  0  0  0  0  0  0  0  0  0  0
  -24.8810   65.7940   25.1090 C   0  0  0  0  0  0  0  0  0  0  0  0
  -25.9270   66.2590   24.4210 C   0  0  0  0  0  0  0  0  0  0  0  0
  -22.9800   67.1030   24.0640 O   0  0  0  0  0  0  0  0  0  0  0  0
  -22.2210   66.8790   23.4330 H   0  0  0  0  0  0  0  0  0  0  0  0
  -27.2640   65.7980   24.6640 N   0  0  0  0  0  0  0  0  0  0  0  0
  -27.5140   65.3810   25.5880 H   0  0  0  0  0  0  0  0  0  0  0  0
  -28.2910   65.8910   23.6690 C   0  0  0  0  0  0  0  0  0  0  0  0
  -28.0430   66.3870   22.5370 O   0  0  0  0  0  0  0  0  0  0  0  0
  -29.6070   65.4200   23.9560 N   0  0  0  0  0  0  0  0  0  0  0  0
  -29.8320   65.0060   24.8880 H   0  0  0  0  0  0  0  0  0  0  0  0
  -30.3600   65.4850   23.2360 H   0  0  0  0  0  0  0  0  0  0  0  0
  1  6  2  0  0  0  0
  1  2  1  0  0  0  0
  2  3  1  0  0  0  0
  2  4  1  0  0  0  0
  5  4  2  0  0  0  0
  6  5  1  0  0  0  0
  7 10  1  0  0  0  0
  7  6  1  0  0  0  0
  8  1  1  0  0  0  0
  9  8  1  0  0  0  0
 10 11  1  0  0  0  0
 12 14  1  0  0  0  0
 12 10  1  0  0  0  0
 13 12  2  0  0  0  0
 14 15  1  0  0  0  0
 16 14  1  0  0  0  0
M  END
>  <REMARK>
 VINA RESULT:      -5.4      2.098      5.584
  2 active torsions:
  status: ('A' for Active; 'I' for Inactive)
    1  A    between atoms: O1_2  and  C1_3 
    2  A    between atoms: C5_9  and  N3_10 
       I    between atoms: N3_10  and  C6_12 
       I    between atoms: C6_12  and  N4_14 

>  <TORSDO>
F 2

$$$$
../pdbqt/decoy.vina_out.65.pdbqt
 OpenBabel06052021513D

 16 16  0  0  0  0  0  0  0  0999 V2000
  -26.6270   65.8040   24.8750 C   0  0  0  0  0  0  0  0  0  0  0  0
  -25.7310   66.4650   24.2150 N   0  0  0  0  0  0  0  0  0  0  0  0
  -25.9620   67.3040   23.0460 C   0  0  0  0  0  0  0  0  0  0  0  0
  -24.4650   66.2650   24.7860 N   0  0  0  0  0  0  0  0  0  0  0  0
  -24.5830   65.4750   25.8050 C   0  0  0  0  0  0  0  0  0  0  0  0
  -25.9860   65.0960   25.9690 C   0  0  0  0  0  0  0  0  0  0  0  0
  -26.5610   64.3040   26.8790 C   0  0  0  0  0  0  0  0  0  0  0  0
  -27.9890   65.7810   24.5750 O   0  0  0  0  0  0  0  0  0  0  0  0
  -28.4320   66.5260   24.0530 H   0  0  0  0  0  0  0  0  0  0  0  0
  -25.8040   63.6610   27.9140 N   0  0  0  0  0  0  0  0  0  0  0  0
  -24.8490   64.0070   28.1570 H   0  0  0  0  0  0  0  0  0  0  0  0
  -26.3180   62.5400   28.6440 C   0  0  0  0  0  0  0  0  0  0  0  0
  -27.4660   62.0830   28.3910 O   0  0  0  0  0  0  0  0  0  0  0  0
  -25.5300   61.9320   29.6660 N   0  0  0  0  0  0  0  0  0  0  0  0
  -24.5770   62.2960   29.8900 H   0  0  0  0  0  0  0  0  0  0  0  0
  -25.8980   61.1150   30.2010 H   0  0  0  0  0  0  0  0  0  0  0  0
  1  6  2  0  0  0  0
  2  4  1  0  0  0  0
  2  1  1  0  0  0  0
  3  2  1  0  0  0  0
  4  5  2  0  0  0  0
  5  6  1  0  0  0  0
  6  7  1  0  0  0  0
  7 10  1  0  0  0  0
  8  1  1  0  0  0  0
  9  8  1  0  0  0  0
 10 11  1  0  0  0  0
 10 12  1  0  0  0  0
 12 14  1  0  0  0  0
 13 12  2  0  0  0  0
 14 15  1  0  0  0  0
 14 16  1  0  0  0  0
M  END
>  <REMARK>
 VINA RESULT:      -5.2      3.479      4.965
  2 active torsions:
  status: ('A' for Active; 'I' for Inactive)
    1  A    between atoms: O1_2  and  C1_3 
    2  A    between atoms: C5_9  and  N3_10 
       I    between atoms: N3_10  and  C6_12 
       I    between atoms: C6_12  and  N4_14 

>  <TORSDO>
F 2

$$$$
../pdbqt/decoy.vina_out.65.pdbqt
 OpenBabel06052021513D

 16 16  0  0  0  0  0  0  0  0999 V2000
  -26.7630   65.4000   25.4960 C   0  0  0  0  0  0  0  0  0  0  0  0
  -27.9660   65.5720   25.0510 N   0  0  0  0  0  0  0  0  0  0  0  0
  -28.3820   66.5200   24.0250 C   0  0  0  0  0  0  0  0  0  0  0  0
  -28.8520   64.7020   25.7050 N   0  0  0  0  0  0  0  0  0  0  0  0
  -28.1880   63.9880   26.5580 C   0  0  0  0  0  0  0  0  0  0  0  0
  -26.7750   64.3630   26.5120 C   0  0  0  0  0  0  0  0  0  0  0  0
  -25.7390   63.8920   27.2120 C   0  0  0  0  0  0  0  0  0  0  0  0
  -25.6400   66.1030   25.0610 O   0  0  0  0  0  0  0  0  0  0  0  0
  -25.3830   66.1460   24.0830 H   0  0  0  0  0  0  0  0  0  0  0  0
  -25.8920   62.8570   28.1940 N   0  0  0  0  0  0  0  0  0  0  0  0
  -25.8820   61.8540   27.9040 H   0  0  0  0  0  0  0  0  0  0  0  0
  -26.0610   63.1520   29.5860 C   0  0  0  0  0  0  0  0  0  0  0  0
  -26.0790   64.3470   29.9900 O   0  0  0  0  0  0  0  0  0  0  0  0
  -26.2090   62.0910   30.5280 N   0  0  0  0  0  0  0  0  0  0  0  0
  -26.1960   61.0950   30.2130 H   0  0  0  0  0  0  0  0  0  0  0  0
  -26.3330   62.2990   31.5440 H   0  0  0  0  0  0  0  0  0  0  0  0
  1  6  2  0  0  0  0
  2  1  1  0  0  0  0
  2  4  1  0  0  0  0
  3  2  1  0  0  0  0
  4  5  2  0  0  0  0
  6  5  1  0  0  0  0
  6  7  1  0  0  0  0
  7 10  1  0  0  0  0
  8  1  1  0  0  0  0
  9  8  1  0  0  0  0
 10 12  1  0  0  0  0
 11 10  1  0  0  0  0
 12 13  2  0  0  0  0
 12 14  1  0  0  0  0
 14 16  1  0  0  0  0
 15 14  1  0  0  0  0
M  END
>  <REMARK>
 VINA RESULT:      -5.1      3.896      5.136
  2 active torsions:
  status: ('A' for Active; 'I' for Inactive)
    1  A    between atoms: O1_2  and  C1_3 
    2  A    between atoms: C5_9  and  N3_10 
       I    between atoms: N3_10  and  C6_12 
       I    between atoms: C6_12  and  N4_14 

>  <TORSDO>
F 2

$$$$
