../pdbqt/decoy.vina_out.68.pdbqt
 OpenBabel06052021513D

 16 16  0  0  0  0  0  0  0  0999 V2000
  -26.7570   64.2230   26.7970 C   0  0  0  0  0  0  0  0  0  0  0  0
  -26.6120   63.0470   27.5570 C   0  0  0  0  0  0  0  0  0  0  0  0
  -25.3540   62.4760   27.7520 C   0  0  0  0  0  0  0  0  0  0  0  0
  -24.2240   63.0660   27.1900 C   0  0  0  0  0  0  0  0  0  0  0  0
  -24.3490   64.2210   26.4160 C   0  0  0  0  0  0  0  0  0  0  0  0
  -25.6100   64.8070   26.1980 C   0  0  0  0  0  0  0  0  0  0  0  0
  -25.7330   65.9380   25.3150 N   0  0  0  0  0  0  0  0  0  0  0  0
  -26.1690   66.8140   25.6800 H   0  0  0  0  0  0  0  0  0  0  0  0
  -25.2430   65.9130   23.9350 C   0  0  0  0  0  0  0  0  0  0  0  0
  -26.0610   66.8500   23.0420 C   0  0  0  0  0  0  0  0  0  0  0  0
  -25.5860   68.1650   23.1380 O   0  0  0  0  0  0  0  0  0  0  0  0
  -26.1040   68.6020   23.8630 H   0  0  0  0  0  0  0  0  0  0  0  0
  -28.0980   64.8440   26.6980 C   0  0  0  0  0  0  0  0  0  0  0  0
  -28.8240   64.9370   27.7260 O   0  0  0  0  0  0  0  0  0  0  0  0
  -28.5410   65.3670   25.4790 O   0  0  0  0  0  0  0  0  0  0  0  0
  -28.9530   64.5470   24.3920 C   0  0  0  0  0  0  0  0  0  0  0  0
  1  2  2  0  0  0  0
  2  3  1  0  0  0  0
  4  3  2  0  0  0  0
  5  4  1  0  0  0  0
  6  5  2  0  0  0  0
  6  1  1  0  0  0  0
  7  8  1  0  0  0  0
  7  6  1  0  0  0  0
  9  7  1  0  0  0  0
 10 11  1  0  0  0  0
 10  9  1  0  0  0  0
 11 12  1  0  0  0  0
 13  1  1  0  0  0  0
 13 14  2  0  0  0  0
 15 13  1  0  0  0  0
 16 15  1  0  0  0  0
M  END
>  <MODEL>
1

>  <REMARK>
 VINA RESULT:      -6.2      0.000      0.000
  6 active torsions:
  status: ('A' for Active; 'I' for Inactive)
    1  A    between atoms: O1_2  and  C2_3 
    2  A    between atoms: C2_3  and  C3_5 
    3  A    between atoms: C8_10  and  N1_11 
    4  A    between atoms: N1_11  and  C9_12 
    5  A    between atoms: C9_12  and  C10_13 
    6  A    between atoms: C10_13  and  O3_14 

>  <TORSDO>
F 6

$$$$
../pdbqt/decoy.vina_out.68.pdbqt
 OpenBabel06052021513D

 16 16  0  0  0  0  0  0  0  0999 V2000
  -24.8830   64.5810   25.9720 C   0  0  0  0  0  0  0  0  0  0  0  0
  -24.7480   63.5740   26.9460 C   0  0  0  0  0  0  0  0  0  0  0  0
  -25.8660   63.0870   27.6260 C   0  0  0  0  0  0  0  0  0  0  0  0
  -27.1320   63.5980   27.3460 C   0  0  0  0  0  0  0  0  0  0  0  0
  -27.2840   64.6100   26.3980 C   0  0  0  0  0  0  0  0  0  0  0  0
  -26.1680   65.1240   25.7090 C   0  0  0  0  0  0  0  0  0  0  0  0
  -26.3300   66.2360   24.8100 N   0  0  0  0  0  0  0  0  0  0  0  0
  -25.9400   67.1660   25.0840 H   0  0  0  0  0  0  0  0  0  0  0  0
  -26.9970   66.1050   23.5120 C   0  0  0  0  0  0  0  0  0  0  0  0
  -26.3530   67.0180   22.4650 C   0  0  0  0  0  0  0  0  0  0  0  0
  -25.0830   67.4360   22.8870 O   0  0  0  0  0  0  0  0  0  0  0  0
  -25.2200   67.9770   23.7080 H   0  0  0  0  0  0  0  0  0  0  0  0
  -23.6830   64.9980   25.2110 C   0  0  0  0  0  0  0  0  0  0  0  0
  -22.8960   64.1250   24.7510 O   0  0  0  0  0  0  0  0  0  0  0  0
  -23.4460   66.3540   24.9620 O   0  0  0  0  0  0  0  0  0  0  0  0
  -22.1480   66.9320   25.0230 C   0  0  0  0  0  0  0  0  0  0  0  0
  1  2  1  0  0  0  0
  2  3  2  0  0  0  0
  4  3  1  0  0  0  0
  5  4  2  0  0  0  0
  6  1  2  0  0  0  0
  6  5  1  0  0  0  0
  7  8  1  0  0  0  0
  7  6  1  0  0  0  0
  9  7  1  0  0  0  0
 10 11  1  0  0  0  0
 10  9  1  0  0  0  0
 11 12  1  0  0  0  0
 13  1  1  0  0  0  0
 14 13  2  0  0  0  0
 15 16  1  0  0  0  0
 15 13  1  0  0  0  0
M  END
>  <REMARK>
 VINA RESULT:      -5.8      2.362      3.571
  6 active torsions:
  status: ('A' for Active; 'I' for Inactive)
    1  A    between atoms: O1_2  and  C2_3 
    2  A    between atoms: C2_3  and  C3_5 
    3  A    between atoms: C8_10  and  N1_11 
    4  A    between atoms: N1_11  and  C9_12 
    5  A    between atoms: C9_12  and  C10_13 
    6  A    between atoms: C10_13  and  O3_14 

>  <TORSDO>
F 6

$$$$
../pdbqt/decoy.vina_out.68.pdbqt
 OpenBabel06052021513D

 16 16  0  0  0  0  0  0  0  0999 V2000
  -27.1210   64.7340   25.9700 C   0  0  0  0  0  0  0  0  0  0  0  0
  -28.4790   64.5170   25.6760 C   0  0  0  0  0  0  0  0  0  0  0  0
  -29.0530   65.0550   24.5230 C   0  0  0  0  0  0  0  0  0  0  0  0
  -28.2820   65.8200   23.6500 C   0  0  0  0  0  0  0  0  0  0  0  0
  -26.9380   66.0640   23.9340 C   0  0  0  0  0  0  0  0  0  0  0  0
  -26.3430   65.5400   25.0980 C   0  0  0  0  0  0  0  0  0  0  0  0
  -24.9840   65.8860   25.4260 N   0  0  0  0  0  0  0  0  0  0  0  0
  -24.6180   65.6380   26.3730 H   0  0  0  0  0  0  0  0  0  0  0  0
  -24.0900   66.5460   24.4730 C   0  0  0  0  0  0  0  0  0  0  0  0
  -22.7170   66.8110   25.0960 C   0  0  0  0  0  0  0  0  0  0  0  0
  -21.8090   67.2560   24.1240 O   0  0  0  0  0  0  0  0  0  0  0  0
  -21.3570   68.0550   24.5020 H   0  0  0  0  0  0  0  0  0  0  0  0
  -26.5340   64.0650   27.1540 C   0  0  0  0  0  0  0  0  0  0  0  0
  -27.0690   64.2110   28.2870 O   0  0  0  0  0  0  0  0  0  0  0  0
  -25.4180   63.2350   27.0100 O   0  0  0  0  0  0  0  0  0  0  0  0
  -25.0840   62.2220   27.9510 C   0  0  0  0  0  0  0  0  0  0  0  0
  1 13  1  0  0  0  0
  2  1  1  0  0  0  0
  3  2  2  0  0  0  0
  4  5  2  0  0  0  0
  4  3  1  0  0  0  0
  5  6  1  0  0  0  0
  6  7  1  0  0  0  0
  6  1  2  0  0  0  0
  7  8  1  0  0  0  0
  9 10  1  0  0  0  0
  9  7  1  0  0  0  0
 11 12  1  0  0  0  0
 11 10  1  0  0  0  0
 13 14  2  0  0  0  0
 15 13  1  0  0  0  0
 15 16  1  0  0  0  0
M  END
>  <REMARK>
 VINA RESULT:      -5.8      2.005      3.655
  6 active torsions:
  status: ('A' for Active; 'I' for Inactive)
    1  A    between atoms: O1_2  and  C2_3 
    2  A    between atoms: C2_3  and  C3_5 
    3  A    between atoms: C8_10  and  N1_11 
    4  A    between atoms: N1_11  and  C9_12 
    5  A    between atoms: C9_12  and  C10_13 
    6  A    between atoms: C10_13  and  O3_14 

>  <TORSDO>
F 6

$$$$
../pdbqt/decoy.vina_out.68.pdbqt
 OpenBabel06052021513D

 16 16  0  0  0  0  0  0  0  0999 V2000
  -26.2400   63.8280   26.9660 C   0  0  0  0  0  0  0  0  0  0  0  0
  -25.4590   62.8280   27.5770 C   0  0  0  0  0  0  0  0  0  0  0  0
  -24.0830   62.7620   27.3510 C   0  0  0  0  0  0  0  0  0  0  0  0
  -23.4670   63.6890   26.5130 C   0  0  0  0  0  0  0  0  0  0  0  0
  -24.2260   64.6750   25.8820 C   0  0  0  0  0  0  0  0  0  0  0  0
  -25.6170   64.7520   26.0860 C   0  0  0  0  0  0  0  0  0  0  0  0
  -26.3980   65.7110   25.3490 N   0  0  0  0  0  0  0  0  0  0  0  0
  -27.1880   66.1940   25.8340 H   0  0  0  0  0  0  0  0  0  0  0  0
  -26.1080   66.0550   23.9560 C   0  0  0  0  0  0  0  0  0  0  0  0
  -27.3960   66.1750   23.1370 C   0  0  0  0  0  0  0  0  0  0  0  0
  -27.1200   66.6410   21.8430 O   0  0  0  0  0  0  0  0  0  0  0  0
  -27.9450   67.0850   21.5190 H   0  0  0  0  0  0  0  0  0  0  0  0
  -27.6770   63.9160   27.3100 C   0  0  0  0  0  0  0  0  0  0  0  0
  -28.5460   63.8480   26.3970 O   0  0  0  0  0  0  0  0  0  0  0  0
  -28.0740   64.0270   28.6460 O   0  0  0  0  0  0  0  0  0  0  0  0
  -29.4070   64.3420   29.0300 C   0  0  0  0  0  0  0  0  0  0  0  0
  1 13  1  0  0  0  0
  1  2  2  0  0  0  0
  3  2  1  0  0  0  0
  4  3  2  0  0  0  0
  5  6  2  0  0  0  0
  5  4  1  0  0  0  0
  6  1  1  0  0  0  0
  7  8  1  0  0  0  0
  7  6  1  0  0  0  0
  9  7  1  0  0  0  0
 10  9  1  0  0  0  0
 11 10  1  0  0  0  0
 12 11  1  0  0  0  0
 13 15  1  0  0  0  0
 14 13  2  0  0  0  0
 15 16  1  0  0  0  0
M  END
>  <REMARK>
 VINA RESULT:      -5.8      1.365      1.959
  6 active torsions:
  status: ('A' for Active; 'I' for Inactive)
    1  A    between atoms: O1_2  and  C2_3 
    2  A    between atoms: C2_3  and  C3_5 
    3  A    between atoms: C8_10  and  N1_11 
    4  A    between atoms: N1_11  and  C9_12 
    5  A    between atoms: C9_12  and  C10_13 
    6  A    between atoms: C10_13  and  O3_14 

>  <TORSDO>
F 6

$$$$
../pdbqt/decoy.vina_out.68.pdbqt
 OpenBabel06052021513D

 16 16  0  0  0  0  0  0  0  0999 V2000
  -26.4220   65.1680   25.8620 C   0  0  0  0  0  0  0  0  0  0  0  0
  -26.0750   65.9910   24.7740 C   0  0  0  0  0  0  0  0  0  0  0  0
  -24.7380   66.2850   24.5020 C   0  0  0  0  0  0  0  0  0  0  0  0
  -23.7290   65.7650   25.3100 C   0  0  0  0  0  0  0  0  0  0  0  0
  -24.0530   64.9640   26.4060 C   0  0  0  0  0  0  0  0  0  0  0  0
  -25.3960   64.6650   26.7060 C   0  0  0  0  0  0  0  0  0  0  0  0
  -25.7170   63.9220   27.8960 N   0  0  0  0  0  0  0  0  0  0  0  0
  -26.0400   64.4420   28.7420 H   0  0  0  0  0  0  0  0  0  0  0  0
  -25.6340   62.4600   27.9550 C   0  0  0  0  0  0  0  0  0  0  0  0
  -26.7430   61.8790   28.8360 C   0  0  0  0  0  0  0  0  0  0  0  0
  -28.0050   62.2680   28.3650 O   0  0  0  0  0  0  0  0  0  0  0  0
  -28.6220   62.2290   29.1420 H   0  0  0  0  0  0  0  0  0  0  0  0
  -27.8450   64.8080   26.0550 C   0  0  0  0  0  0  0  0  0  0  0  0
  -28.3910   64.9870   27.1790 O   0  0  0  0  0  0  0  0  0  0  0  0
  -28.5960   64.3140   24.9830 O   0  0  0  0  0  0  0  0  0  0  0  0
  -29.4640   65.1330   24.2090 C   0  0  0  0  0  0  0  0  0  0  0  0
  1 13  1  0  0  0  0
  1  6  2  0  0  0  0
  2  1  1  0  0  0  0
  3  2  2  0  0  0  0
  3  4  1  0  0  0  0
  4  5  2  0  0  0  0
  5  6  1  0  0  0  0
  6  7  1  0  0  0  0
  7  9  1  0  0  0  0
  7  8  1  0  0  0  0
  9 10  1  0  0  0  0
 11 10  1  0  0  0  0
 11 12  1  0  0  0  0
 13 14  2  0  0  0  0
 15 13  1  0  0  0  0
 16 15  1  0  0  0  0
M  END
>  <REMARK>
 VINA RESULT:      -5.7      1.942      4.006
  6 active torsions:
  status: ('A' for Active; 'I' for Inactive)
    1  A    between atoms: O1_2  and  C2_3 
    2  A    between atoms: C2_3  and  C3_5 
    3  A    between atoms: C8_10  and  N1_11 
    4  A    between atoms: N1_11  and  C9_12 
    5  A    between atoms: C9_12  and  C10_13 
    6  A    between atoms: C10_13  and  O3_14 

>  <TORSDO>
F 6

$$$$
../pdbqt/decoy.vina_out.68.pdbqt
 OpenBabel06052021513D

 16 16  0  0  0  0  0  0  0  0999 V2000
  -25.3410   64.0950   26.7840 C   0  0  0  0  0  0  0  0  0  0  0  0
  -24.3870   63.2320   27.3530 C   0  0  0  0  0  0  0  0  0  0  0  0
  -24.7840   62.1580   28.1520 C   0  0  0  0  0  0  0  0  0  0  0  0
  -26.1370   61.9330   28.3970 C   0  0  0  0  0  0  0  0  0  0  0  0
  -27.0980   62.7890   27.8590 C   0  0  0  0  0  0  0  0  0  0  0  0
  -26.7180   63.8840   27.0600 C   0  0  0  0  0  0  0  0  0  0  0  0
  -27.7150   64.8140   26.5970 N   0  0  0  0  0  0  0  0  0  0  0  0
  -27.6110   65.8250   26.8410 H   0  0  0  0  0  0  0  0  0  0  0  0
  -28.8520   64.4000   25.7730 C   0  0  0  0  0  0  0  0  0  0  0  0
  -29.0510   65.3480   24.5880 C   0  0  0  0  0  0  0  0  0  0  0  0
  -28.4070   64.8550   23.4450 O   0  0  0  0  0  0  0  0  0  0  0  0
  -27.4320   64.8930   23.6290 H   0  0  0  0  0  0  0  0  0  0  0  0
  -24.8780   65.1620   25.8670 C   0  0  0  0  0  0  0  0  0  0  0  0
  -23.7580   65.7120   26.0600 O   0  0  0  0  0  0  0  0  0  0  0  0
  -25.6560   65.5280   24.7650 O   0  0  0  0  0  0  0  0  0  0  0  0
  -25.2620   66.5370   23.8440 C   0  0  0  0  0  0  0  0  0  0  0  0
  1  6  2  0  0  0  0
  1  2  1  0  0  0  0
  2  3  2  0  0  0  0
  3  4  1  0  0  0  0
  5  4  2  0  0  0  0
  6  5  1  0  0  0  0
  7  8  1  0  0  0  0
  7  6  1  0  0  0  0
  9  7  1  0  0  0  0
 10  9  1  0  0  0  0
 11 12  1  0  0  0  0
 11 10  1  0  0  0  0
 13 14  2  0  0  0  0
 13  1  1  0  0  0  0
 15 13  1  0  0  0  0
 16 15  1  0  0  0  0
M  END
>  <REMARK>
 VINA RESULT:      -5.7      1.825      3.312
  6 active torsions:
  status: ('A' for Active; 'I' for Inactive)
    1  A    between atoms: O1_2  and  C2_3 
    2  A    between atoms: C2_3  and  C3_5 
    3  A    between atoms: C8_10  and  N1_11 
    4  A    between atoms: N1_11  and  C9_12 
    5  A    between atoms: C9_12  and  C10_13 
    6  A    between atoms: C10_13  and  O3_14 

>  <TORSDO>
F 6

$$$$
../pdbqt/decoy.vina_out.68.pdbqt
 OpenBabel06052021513D

 16 16  0  0  0  0  0  0  0  0999 V2000
  -26.2240   65.3510   25.5570 C   0  0  0  0  0  0  0  0  0  0  0  0
  -27.4820   65.5910   24.9730 C   0  0  0  0  0  0  0  0  0  0  0  0
  -27.6040   66.4300   23.8640 C   0  0  0  0  0  0  0  0  0  0  0  0
  -26.4760   67.0430   23.3240 C   0  0  0  0  0  0  0  0  0  0  0  0
  -25.2220   66.8340   23.9000 C   0  0  0  0  0  0  0  0  0  0  0  0
  -25.0780   66.0010   25.0260 C   0  0  0  0  0  0  0  0  0  0  0  0
  -23.7960   65.8780   25.6680 N   0  0  0  0  0  0  0  0  0  0  0  0
  -23.7590   65.8130   26.7100 H   0  0  0  0  0  0  0  0  0  0  0  0
  -22.5430   65.8110   24.9120 C   0  0  0  0  0  0  0  0  0  0  0  0
  -21.7060   67.0770   25.1170 C   0  0  0  0  0  0  0  0  0  0  0  0
  -21.2280   67.5590   23.8900 O   0  0  0  0  0  0  0  0  0  0  0  0
  -20.4940   66.9510   23.6130 H   0  0  0  0  0  0  0  0  0  0  0  0
  -26.1310   64.3800   26.6710 C   0  0  0  0  0  0  0  0  0  0  0  0
  -25.1890   63.5400   26.6950 O   0  0  0  0  0  0  0  0  0  0  0  0
  -27.0570   64.4230   27.7190 O   0  0  0  0  0  0  0  0  0  0  0  0
  -27.8190   63.2920   28.1200 C   0  0  0  0  0  0  0  0  0  0  0  0
  1 13  1  0  0  0  0
  2  1  2  0  0  0  0
  3  2  1  0  0  0  0
  4  3  2  0  0  0  0
  4  5  1  0  0  0  0
  5  6  2  0  0  0  0
  6  1  1  0  0  0  0
  6  7  1  0  0  0  0
  7  8  1  0  0  0  0
  9 10  1  0  0  0  0
  9  7  1  0  0  0  0
 11 10  1  0  0  0  0
 12 11  1  0  0  0  0
 13 14  2  0  0  0  0
 13 15  1  0  0  0  0
 15 16  1  0  0  0  0
M  END
>  <REMARK>
 VINA RESULT:      -5.6      2.377      3.838
  6 active torsions:
  status: ('A' for Active; 'I' for Inactive)
    1  A    between atoms: O1_2  and  C2_3 
    2  A    between atoms: C2_3  and  C3_5 
    3  A    between atoms: C8_10  and  N1_11 
    4  A    between atoms: N1_11  and  C9_12 
    5  A    between atoms: C9_12  and  C10_13 
    6  A    between atoms: C10_13  and  O3_14 

>  <TORSDO>
F 6

$$$$
../pdbqt/decoy.vina_out.68.pdbqt
 OpenBabel06052021513D

 16 16  0  0  0  0  0  0  0  0999 V2000
  -25.0590   65.1370   25.5910 C   0  0  0  0  0  0  0  0  0  0  0  0
  -26.4440   65.1250   25.8440 C   0  0  0  0  0  0  0  0  0  0  0  0
  -26.9840   64.2700   26.8060 C   0  0  0  0  0  0  0  0  0  0  0  0
  -26.1540   63.4160   27.5270 C   0  0  0  0  0  0  0  0  0  0  0  0
  -24.7810   63.3980   27.2770 C   0  0  0  0  0  0  0  0  0  0  0  0
  -24.2170   64.2430   26.3020 C   0  0  0  0  0  0  0  0  0  0  0  0
  -22.8160   64.1400   25.9880 N   0  0  0  0  0  0  0  0  0  0  0  0
  -22.1760   64.9110   26.2830 H   0  0  0  0  0  0  0  0  0  0  0  0
  -22.2500   62.9800   25.2950 C   0  0  0  0  0  0  0  0  0  0  0  0
  -22.3570   63.1380   23.7760 C   0  0  0  0  0  0  0  0  0  0  0  0
  -22.0360   61.9360   23.1290 O   0  0  0  0  0  0  0  0  0  0  0  0
  -21.0840   62.0060   22.8570 H   0  0  0  0  0  0  0  0  0  0  0  0
  -24.5210   66.1270   24.6290 C   0  0  0  0  0  0  0  0  0  0  0  0
  -23.4930   66.7960   24.9260 O   0  0  0  0  0  0  0  0  0  0  0  0
  -25.1220   66.2870   23.3770 O   0  0  0  0  0  0  0  0  0  0  0  0
  -25.9360   67.4080   23.0510 C   0  0  0  0  0  0  0  0  0  0  0  0
  1  2  2  0  0  0  0
  1  6  1  0  0  0  0
  2  3  1  0  0  0  0
  3  4  2  0  0  0  0
  5  4  1  0  0  0  0
  6  5  2  0  0  0  0
  7  8  1  0  0  0  0
  7  6  1  0  0  0  0
  9  7  1  0  0  0  0
 10  9  1  0  0  0  0
 11 10  1  0  0  0  0
 12 11  1  0  0  0  0
 13 14  2  0  0  0  0
 13  1  1  0  0  0  0
 15 13  1  0  0  0  0
 16 15  1  0  0  0  0
M  END
>  <REMARK>
 VINA RESULT:      -5.6      2.674      4.076
  6 active torsions:
  status: ('A' for Active; 'I' for Inactive)
    1  A    between atoms: O1_2  and  C2_3 
    2  A    between atoms: C2_3  and  C3_5 
    3  A    between atoms: C8_10  and  N1_11 
    4  A    between atoms: N1_11  and  C9_12 
    5  A    between atoms: C9_12  and  C10_13 
    6  A    between atoms: C10_13  and  O3_14 

>  <TORSDO>
F 6

$$$$
../pdbqt/decoy.vina_out.68.pdbqt
 OpenBabel06052021513D

 16 16  0  0  0  0  0  0  0  0999 V2000
  -25.3040   64.7900   26.3210 C   0  0  0  0  0  0  0  0  0  0  0  0
  -23.9350   65.0410   26.5290 C   0  0  0  0  0  0  0  0  0  0  0  0
  -23.2410   65.9310   25.7080 C   0  0  0  0  0  0  0  0  0  0  0  0
  -23.9010   66.5820   24.6680 C   0  0  0  0  0  0  0  0  0  0  0  0
  -25.2530   66.3320   24.4320 C   0  0  0  0  0  0  0  0  0  0  0  0
  -25.9690   65.4280   25.2410 C   0  0  0  0  0  0  0  0  0  0  0  0
  -27.3350   65.1070   24.9210 N   0  0  0  0  0  0  0  0  0  0  0  0
  -27.5410   64.1960   24.4510 H   0  0  0  0  0  0  0  0  0  0  0  0
  -28.4500   65.9950   25.2560 C   0  0  0  0  0  0  0  0  0  0  0  0
  -28.7660   66.9470   24.0990 C   0  0  0  0  0  0  0  0  0  0  0  0
  -28.4170   66.3670   22.8710 O   0  0  0  0  0  0  0  0  0  0  0  0
  -27.4540   66.5590   22.7290 H   0  0  0  0  0  0  0  0  0  0  0  0
  -26.0190   63.9110   27.2750 C   0  0  0  0  0  0  0  0  0  0  0  0
  -25.6300   62.7230   27.4450 O   0  0  0  0  0  0  0  0  0  0  0  0
  -27.0920   64.4100   28.0200 O   0  0  0  0  0  0  0  0  0  0  0  0
  -28.2770   63.6600   28.2600 C   0  0  0  0  0  0  0  0  0  0  0  0
  1  2  1  0  0  0  0
  1 13  1  0  0  0  0
  3  2  2  0  0  0  0
  4  3  1  0  0  0  0
  5  4  2  0  0  0  0
  5  6  1  0  0  0  0
  6  1  2  0  0  0  0
  7  6  1  0  0  0  0
  7  9  1  0  0  0  0
  8  7  1  0  0  0  0
 10  9  1  0  0  0  0
 11 10  1  0  0  0  0
 12 11  1  0  0  0  0
 13 14  2  0  0  0  0
 13 15  1  0  0  0  0
 15 16  1  0  0  0  0
M  END
>  <REMARK>
 VINA RESULT:      -5.6      1.955      3.235
  6 active torsions:
  status: ('A' for Active; 'I' for Inactive)
    1  A    between atoms: O1_2  and  C2_3 
    2  A    between atoms: C2_3  and  C3_5 
    3  A    between atoms: C8_10  and  N1_11 
    4  A    between atoms: N1_11  and  C9_12 
    5  A    between atoms: C9_12  and  C10_13 
    6  A    between atoms: C10_13  and  O3_14 

>  <TORSDO>
F 6

$$$$
