../pdbqt/decoy.vina_out.56.pdbqt
 OpenBabel06052021513D

 21 22  0  0  0  0  0  0  0  0999 V2000
  -21.1900   61.9760   24.6170 C   0  0  0  0  0  0  0  0  0  0  0  0
  -20.6530   62.3890   23.3930 C   0  0  0  0  0  0  0  0  0  0  0  0
  -20.3420   63.6990   23.2000 N   0  0  0  0  0  0  0  0  0  0  0  0
  -20.5470   64.6420   24.1600 C   0  0  0  0  0  0  0  0  0  0  0  0
  -21.1160   64.2730   25.3930 C   0  0  0  0  0  0  0  0  0  0  0  0
  -21.4090   62.9190   25.6200 C   0  0  0  0  0  0  0  0  0  0  0  0
  -21.2970   65.2520   26.4290 N   0  0  0  0  0  0  0  0  0  0  0  0
  -22.3770   65.8920   26.6750 N   0  0  0  0  0  0  0  0  0  0  0  0
  -23.5640   65.8780   25.8660 C   0  0  0  0  0  0  0  0  0  0  0  0
  -24.6830   65.1610   26.3080 C   0  0  0  0  0  0  0  0  0  0  0  0
  -25.8620   65.1590   25.5580 C   0  0  0  0  0  0  0  0  0  0  0  0
  -25.9400   65.8970   24.3720 C   0  0  0  0  0  0  0  0  0  0  0  0
  -27.1120   65.8940   23.6260 O   0  0  0  0  0  0  0  0  0  0  0  0
  -24.8390   66.6430   23.9410 C   0  0  0  0  0  0  0  0  0  0  0  0
  -23.6580   66.6460   24.6900 C   0  0  0  0  0  0  0  0  0  0  0  0
  -20.1940   66.0010   23.8870 N   0  0  0  0  0  0  0  0  0  0  0  0
  -20.0370   66.6680   24.6750 H   0  0  0  0  0  0  0  0  0  0  0  0
  -20.0840   66.3550   22.9110 H   0  0  0  0  0  0  0  0  0  0  0  0
  -20.4180   61.4430   22.3490 N   0  0  0  0  0  0  0  0  0  0  0  0
  -21.2020   60.8860   21.9430 H   0  0  0  0  0  0  0  0  0  0  0  0
  -19.4530   61.3000   21.9780 H   0  0  0  0  0  0  0  0  0  0  0  0
  1  6  2  0  0  0  0
  2  1  1  0  0  0  0
  3  2  2  0  0  0  0
  3  4  1  0  0  0  0
  4  5  2  0  0  0  0
  5  6  1  0  0  0  0
  5  7  1  0  0  0  0
  7  8  2  0  0  0  0
  9 10  1  0  0  0  0
  9  8  1  0  0  0  0
 11 10  2  0  0  0  0
 12 11  1  0  0  0  0
 13 12  1  0  0  0  0
 14 12  2  0  0  0  0
 14 15  1  0  0  0  0
 15  9  2  0  0  0  0
 16  4  1  0  0  0  0
 16 17  1  0  0  0  0
 18 16  1  0  0  0  0
 19  2  1  0  0  0  0
 20 19  1  0  0  0  0
 21 19  1  0  0  0  0
M  END
>  <MODEL>
1

>  <REMARK>
 VINA RESULT:      -6.7      0.000      0.000
  4 active torsions:
  status: ('A' for Active; 'I' for Inactive)
    1  A    between atoms: C2_2  and  N1_3 
    2  A    between atoms: C3_7  and  N3_8 
    3  A    between atoms: C4_11  and  N4_12 
    4  A    between atoms: N5_13  and  C5_14 

>  <TORSDO>
F 4

$$$$
../pdbqt/decoy.vina_out.56.pdbqt
 OpenBabel06052021513D

 21 22  0  0  0  0  0  0  0  0999 V2000
  -25.1170   66.8650   23.4410 C   0  0  0  0  0  0  0  0  0  0  0  0
  -26.3830   66.2880   23.5840 C   0  0  0  0  0  0  0  0  0  0  0  0
  -26.6590   65.5300   24.6800 N   0  0  0  0  0  0  0  0  0  0  0  0
  -25.7360   65.2970   25.6520 C   0  0  0  0  0  0  0  0  0  0  0  0
  -24.4400   65.8330   25.5290 C   0  0  0  0  0  0  0  0  0  0  0  0
  -24.1510   66.6450   24.4210 C   0  0  0  0  0  0  0  0  0  0  0  0
  -23.4700   65.6290   26.5700 N   0  0  0  0  0  0  0  0  0  0  0  0
  -22.3460   65.0330   26.4400 N   0  0  0  0  0  0  0  0  0  0  0  0
  -21.9070   64.3110   25.2770 C   0  0  0  0  0  0  0  0  0  0  0  0
  -20.8070   64.7880   24.5540 C   0  0  0  0  0  0  0  0  0  0  0  0
  -20.3370   64.0860   23.4390 C   0  0  0  0  0  0  0  0  0  0  0  0
  -20.9490   62.8880   23.0560 C   0  0  0  0  0  0  0  0  0  0  0  0
  -20.4820   62.1930   21.9480 O   0  0  0  0  0  0  0  0  0  0  0  0
  -22.0260   62.3890   23.7930 C   0  0  0  0  0  0  0  0  0  0  0  0
  -22.4980   63.0880   24.9080 C   0  0  0  0  0  0  0  0  0  0  0  0
  -26.0980   64.4910   26.7770 N   0  0  0  0  0  0  0  0  0  0  0  0
  -25.6810   64.6860   27.7150 H   0  0  0  0  0  0  0  0  0  0  0  0
  -26.7790   63.7040   26.6930 H   0  0  0  0  0  0  0  0  0  0  0  0
  -27.3910   66.4970   22.5940 N   0  0  0  0  0  0  0  0  0  0  0  0
  -27.1580   66.4770   21.5770 H   0  0  0  0  0  0  0  0  0  0  0  0
  -28.3800   66.6730   22.8810 H   0  0  0  0  0  0  0  0  0  0  0  0
  1  2  2  0  0  0  0
  1  6  1  0  0  0  0
  2  3  1  0  0  0  0
  3  4  2  0  0  0  0
  4 16  1  0  0  0  0
  5  4  1  0  0  0  0
  5  7  1  0  0  0  0
  6  5  2  0  0  0  0
  8  7  2  0  0  0  0
  9  8  1  0  0  0  0
 10  9  2  0  0  0  0
 11 10  1  0  0  0  0
 12 11  2  0  0  0  0
 12 14  1  0  0  0  0
 13 12  1  0  0  0  0
 14 15  2  0  0  0  0
 15  9  1  0  0  0  0
 16 17  1  0  0  0  0
 18 16  1  0  0  0  0
 19 21  1  0  0  0  0
 19  2  1  0  0  0  0
 20 19  1  0  0  0  0
M  END
>  <REMARK>
 VINA RESULT:      -6.2      2.981      5.540
  4 active torsions:
  status: ('A' for Active; 'I' for Inactive)
    1  A    between atoms: C2_2  and  N1_3 
    2  A    between atoms: C3_7  and  N3_8 
    3  A    between atoms: C4_11  and  N4_12 
    4  A    between atoms: N5_13  and  C5_14 

>  <TORSDO>
F 4

$$$$
../pdbqt/decoy.vina_out.56.pdbqt
 OpenBabel06052021513D

 21 22  0  0  0  0  0  0  0  0999 V2000
  -25.7460   66.3890   24.0190 C   0  0  0  0  0  0  0  0  0  0  0  0
  -26.9240   66.1340   23.3110 C   0  0  0  0  0  0  0  0  0  0  0  0
  -27.9180   65.4100   23.8930 N   0  0  0  0  0  0  0  0  0  0  0  0
  -27.8070   64.9050   25.1520 C   0  0  0  0  0  0  0  0  0  0  0  0
  -26.6230   65.1120   25.8850 C   0  0  0  0  0  0  0  0  0  0  0  0
  -25.6020   65.8860   25.3110 C   0  0  0  0  0  0  0  0  0  0  0  0
  -26.5110   64.6200   27.2310 N   0  0  0  0  0  0  0  0  0  0  0  0
  -25.4240   64.2930   27.8210 N   0  0  0  0  0  0  0  0  0  0  0  0
  -24.1290   64.1980   27.2050 C   0  0  0  0  0  0  0  0  0  0  0  0
  -23.2170   65.2490   27.3680 C   0  0  0  0  0  0  0  0  0  0  0  0
  -21.9390   65.1670   26.8090 C   0  0  0  0  0  0  0  0  0  0  0  0
  -21.5540   64.0220   26.1030 C   0  0  0  0  0  0  0  0  0  0  0  0
  -20.2830   63.9430   25.5470 O   0  0  0  0  0  0  0  0  0  0  0  0
  -22.4470   62.9560   25.9650 C   0  0  0  0  0  0  0  0  0  0  0  0
  -23.7260   63.0350   26.5230 C   0  0  0  0  0  0  0  0  0  0  0  0
  -28.8940   64.1550   25.7000 N   0  0  0  0  0  0  0  0  0  0  0  0
  -29.8710   64.3470   25.3870 H   0  0  0  0  0  0  0  0  0  0  0  0
  -28.7410   63.4050   26.4110 H   0  0  0  0  0  0  0  0  0  0  0  0
  -27.0960   66.6380   21.9860 N   0  0  0  0  0  0  0  0  0  0  0  0
  -28.0090   66.5400   21.4880 H   0  0  0  0  0  0  0  0  0  0  0  0
  -26.3050   67.1140   21.4980 H   0  0  0  0  0  0  0  0  0  0  0  0
  1  6  2  0  0  0  0
  2  3  2  0  0  0  0
  2  1  1  0  0  0  0
  3  4  1  0  0  0  0
  4 16  1  0  0  0  0
  4  5  2  0  0  0  0
  5  7  1  0  0  0  0
  6  5  1  0  0  0  0
  7  8  2  0  0  0  0
  9 10  1  0  0  0  0
  9  8  1  0  0  0  0
 11 10  2  0  0  0  0
 12 11  1  0  0  0  0
 13 12  1  0  0  0  0
 14 12  2  0  0  0  0
 14 15  1  0  0  0  0
 15  9  2  0  0  0  0
 16 18  1  0  0  0  0
 17 16  1  0  0  0  0
 19  2  1  0  0  0  0
 20 19  1  0  0  0  0
 21 19  1  0  0  0  0
M  END
>  <REMARK>
 VINA RESULT:      -6.1      4.034      5.973
  4 active torsions:
  status: ('A' for Active; 'I' for Inactive)
    1  A    between atoms: C2_2  and  N1_3 
    2  A    between atoms: C3_7  and  N3_8 
    3  A    between atoms: C4_11  and  N4_12 
    4  A    between atoms: N5_13  and  C5_14 

>  <TORSDO>
F 4

$$$$
../pdbqt/decoy.vina_out.56.pdbqt
 OpenBabel06052021513D

 21 22  0  0  0  0  0  0  0  0999 V2000
  -19.9540   63.7620   22.7660 C   0  0  0  0  0  0  0  0  0  0  0  0
  -20.1420   62.4500   23.2130 C   0  0  0  0  0  0  0  0  0  0  0  0
  -20.2140   62.1960   24.5480 N   0  0  0  0  0  0  0  0  0  0  0  0
  -20.0990   63.1800   25.4810 C   0  0  0  0  0  0  0  0  0  0  0  0
  -19.8760   64.5080   25.0720 C   0  0  0  0  0  0  0  0  0  0  0  0
  -19.8330   64.7910   23.6970 C   0  0  0  0  0  0  0  0  0  0  0  0
  -19.7950   65.5610   26.0470 N   0  0  0  0  0  0  0  0  0  0  0  0
  -20.7870   66.1760   26.5700 N   0  0  0  0  0  0  0  0  0  0  0  0
  -22.1610   66.0500   26.1680 C   0  0  0  0  0  0  0  0  0  0  0  0
  -22.6020   66.7290   25.0260 C   0  0  0  0  0  0  0  0  0  0  0  0
  -23.9240   66.5960   24.5930 C   0  0  0  0  0  0  0  0  0  0  0  0
  -24.8090   65.7620   25.2850 C   0  0  0  0  0  0  0  0  0  0  0  0
  -26.1230   65.6320   24.8550 O   0  0  0  0  0  0  0  0  0  0  0  0
  -24.3660   65.0550   26.4070 C   0  0  0  0  0  0  0  0  0  0  0  0
  -23.0440   65.1860   26.8420 C   0  0  0  0  0  0  0  0  0  0  0  0
  -20.1870   62.8390   26.8670 N   0  0  0  0  0  0  0  0  0  0  0  0
  -20.6850   61.9690   27.1600 H   0  0  0  0  0  0  0  0  0  0  0  0
  -19.7600   63.4370   27.6090 H   0  0  0  0  0  0  0  0  0  0  0  0
  -20.2680   61.3770   22.2790 N   0  0  0  0  0  0  0  0  0  0  0  0
  -21.0690   60.7100   22.3320 H   0  0  0  0  0  0  0  0  0  0  0  0
  -19.5550   61.2490   21.5270 H   0  0  0  0  0  0  0  0  0  0  0  0
  1  2  2  0  0  0  0
  1  6  1  0  0  0  0
  2  3  1  0  0  0  0
  3  4  2  0  0  0  0
  4 16  1  0  0  0  0
  5  4  1  0  0  0  0
  5  7  1  0  0  0  0
  6  5  2  0  0  0  0
  7  8  2  0  0  0  0
  9  8  1  0  0  0  0
  9 15  2  0  0  0  0
 10  9  1  0  0  0  0
 11 10  2  0  0  0  0
 11 12  1  0  0  0  0
 12 14  2  0  0  0  0
 13 12  1  0  0  0  0
 14 15  1  0  0  0  0
 16 17  1  0  0  0  0
 16 18  1  0  0  0  0
 19 20  1  0  0  0  0
 19  2  1  0  0  0  0
 21 19  1  0  0  0  0
M  END
>  <REMARK>
 VINA RESULT:      -5.9      1.353      2.300
  4 active torsions:
  status: ('A' for Active; 'I' for Inactive)
    1  A    between atoms: C2_2  and  N1_3 
    2  A    between atoms: C3_7  and  N3_8 
    3  A    between atoms: C4_11  and  N4_12 
    4  A    between atoms: N5_13  and  C5_14 

>  <TORSDO>
F 4

$$$$
../pdbqt/decoy.vina_out.56.pdbqt
 OpenBabel06052021513D

 21 22  0  0  0  0  0  0  0  0999 V2000
  -21.8620   62.3090   23.9530 C   0  0  0  0  0  0  0  0  0  0  0  0
  -20.9110   61.9230   24.9030 C   0  0  0  0  0  0  0  0  0  0  0  0
  -20.4510   62.8320   25.8050 N   0  0  0  0  0  0  0  0  0  0  0  0
  -20.8770   64.1250   25.8150 C   0  0  0  0  0  0  0  0  0  0  0  0
  -21.8100   64.5600   24.8550 C   0  0  0  0  0  0  0  0  0  0  0  0
  -22.3190   63.6260   23.9390 C   0  0  0  0  0  0  0  0  0  0  0  0
  -22.2990   65.9110   24.8820 N   0  0  0  0  0  0  0  0  0  0  0  0
  -23.3830   66.3050   25.4350 N   0  0  0  0  0  0  0  0  0  0  0  0
  -24.4000   65.4550   25.9900 C   0  0  0  0  0  0  0  0  0  0  0  0
  -24.1010   64.6840   27.1210 C   0  0  0  0  0  0  0  0  0  0  0  0
  -25.0820   63.8750   27.7020 C   0  0  0  0  0  0  0  0  0  0  0  0
  -26.3760   63.8500   27.1720 C   0  0  0  0  0  0  0  0  0  0  0  0
  -27.3490   63.0450   27.7500 O   0  0  0  0  0  0  0  0  0  0  0  0
  -26.6900   64.6430   26.0640 C   0  0  0  0  0  0  0  0  0  0  0  0
  -25.7120   65.4530   25.4810 C   0  0  0  0  0  0  0  0  0  0  0  0
  -20.3510   65.0240   26.7950 N   0  0  0  0  0  0  0  0  0  0  0  0
  -20.9960   65.6450   27.3330 H   0  0  0  0  0  0  0  0  0  0  0  0
  -19.3280   65.0790   26.9970 H   0  0  0  0  0  0  0  0  0  0  0  0
  -20.4260   60.5810   24.9390 N   0  0  0  0  0  0  0  0  0  0  0  0
  -20.5510   59.9870   25.7880 H   0  0  0  0  0  0  0  0  0  0  0  0
  -19.9380   60.1760   24.1080 H   0  0  0  0  0  0  0  0  0  0  0  0
  1  2  1  0  0  0  0
  2 19  1  0  0  0  0
  2  3  2  0  0  0  0
  3  4  1  0  0  0  0
  4 16  1  0  0  0  0
  5  7  1  0  0  0  0
  5  4  2  0  0  0  0
  6  1  2  0  0  0  0
  6  5  1  0  0  0  0
  7  8  2  0  0  0  0
  8  9  1  0  0  0  0
  9 10  1  0  0  0  0
 10 11  2  0  0  0  0
 12 11  1  0  0  0  0
 12 13  1  0  0  0  0
 14 12  2  0  0  0  0
 15  9  2  0  0  0  0
 15 14  1  0  0  0  0
 16 18  1  0  0  0  0
 16 17  1  0  0  0  0
 19 20  1  0  0  0  0
 21 19  1  0  0  0  0
M  END
>  <REMARK>
 VINA RESULT:      -5.9      1.976      2.512
  4 active torsions:
  status: ('A' for Active; 'I' for Inactive)
    1  A    between atoms: C2_2  and  N1_3 
    2  A    between atoms: C3_7  and  N3_8 
    3  A    between atoms: C4_11  and  N4_12 
    4  A    between atoms: N5_13  and  C5_14 

>  <TORSDO>
F 4

$$$$
../pdbqt/decoy.vina_out.56.pdbqt
 OpenBabel06052021513D

 21 22  0  0  0  0  0  0  0  0999 V2000
  -27.5570   64.8670   25.7550 C   0  0  0  0  0  0  0  0  0  0  0  0
  -27.8560   65.6380   24.6270 C   0  0  0  0  0  0  0  0  0  0  0  0
  -26.8680   66.3420   24.0110 N   0  0  0  0  0  0  0  0  0  0  0  0
  -25.5840   66.3370   24.4600 C   0  0  0  0  0  0  0  0  0  0  0  0
  -25.2490   65.5990   25.6110 C   0  0  0  0  0  0  0  0  0  0  0  0
  -26.2500   64.8400   26.2380 C   0  0  0  0  0  0  0  0  0  0  0  0
  -23.8880   65.5520   26.0700 N   0  0  0  0  0  0  0  0  0  0  0  0
  -23.4320   64.7820   26.9840 N   0  0  0  0  0  0  0  0  0  0  0  0
  -24.2180   63.9370   27.8400 C   0  0  0  0  0  0  0  0  0  0  0  0
  -24.7930   64.4830   28.9950 C   0  0  0  0  0  0  0  0  0  0  0  0
  -25.5910   63.6910   29.8270 C   0  0  0  0  0  0  0  0  0  0  0  0
  -25.8400   62.3550   29.4960 C   0  0  0  0  0  0  0  0  0  0  0  0
  -26.6310   61.5700   30.3240 O   0  0  0  0  0  0  0  0  0  0  0  0
  -25.2960   61.8130   28.3280 C   0  0  0  0  0  0  0  0  0  0  0  0
  -24.4980   62.6020   27.4940 C   0  0  0  0  0  0  0  0  0  0  0  0
  -24.5980   67.1000   23.7590 N   0  0  0  0  0  0  0  0  0  0  0  0
  -24.4400   68.1020   24.0080 H   0  0  0  0  0  0  0  0  0  0  0  0
  -24.0180   66.6830   22.9980 H   0  0  0  0  0  0  0  0  0  0  0  0
  -29.1870   65.6830   24.1120 N   0  0  0  0  0  0  0  0  0  0  0  0
  -29.4220   66.2700   23.2820 H   0  0  0  0  0  0  0  0  0  0  0  0
  -29.9440   65.1240   24.5650 H   0  0  0  0  0  0  0  0  0  0  0  0
  1  6  1  0  0  0  0
  2  1  2  0  0  0  0
  3  4  2  0  0  0  0
  3  2  1  0  0  0  0
  4  5  1  0  0  0  0
  5  7  1  0  0  0  0
  5  6  2  0  0  0  0
  7  8  2  0  0  0  0
  8  9  1  0  0  0  0
  9 10  1  0  0  0  0
 10 11  2  0  0  0  0
 12 11  1  0  0  0  0
 12 13  1  0  0  0  0
 14 12  2  0  0  0  0
 15  9  2  0  0  0  0
 15 14  1  0  0  0  0
 16 17  1  0  0  0  0
 16  4  1  0  0  0  0
 18 16  1  0  0  0  0
 19 21  1  0  0  0  0
 19  2  1  0  0  0  0
 20 19  1  0  0  0  0
M  END
>  <REMARK>
 VINA RESULT:      -5.8      3.991      5.809
  4 active torsions:
  status: ('A' for Active; 'I' for Inactive)
    1  A    between atoms: C2_2  and  N1_3 
    2  A    between atoms: C3_7  and  N3_8 
    3  A    between atoms: C4_11  and  N4_12 
    4  A    between atoms: N5_13  and  C5_14 

>  <TORSDO>
F 4

$$$$
../pdbqt/decoy.vina_out.56.pdbqt
 OpenBabel06052021513D

 21 22  0  0  0  0  0  0  0  0999 V2000
  -21.0770   67.7890   27.3180 C   0  0  0  0  0  0  0  0  0  0  0  0
  -20.5590   68.4440   26.1960 C   0  0  0  0  0  0  0  0  0  0  0  0
  -20.2960   67.7380   25.0640 N   0  0  0  0  0  0  0  0  0  0  0  0
  -20.5090   66.3960   24.9790 C   0  0  0  0  0  0  0  0  0  0  0  0
  -20.9990   65.6950   26.0970 C   0  0  0  0  0  0  0  0  0  0  0  0
  -21.3080   66.4160   27.2610 C   0  0  0  0  0  0  0  0  0  0  0  0
  -21.2690   64.2860   26.0060 N   0  0  0  0  0  0  0  0  0  0  0  0
  -22.3790   63.7560   25.6560 N   0  0  0  0  0  0  0  0  0  0  0  0
  -23.6160   64.4580   25.4460 C   0  0  0  0  0  0  0  0  0  0  0  0
  -23.8240   65.1250   24.2320 C   0  0  0  0  0  0  0  0  0  0  0  0
  -25.0310   65.7850   23.9880 C   0  0  0  0  0  0  0  0  0  0  0  0
  -26.0490   65.7630   24.9470 C   0  0  0  0  0  0  0  0  0  0  0  0
  -27.2480   66.4210   24.7040 O   0  0  0  0  0  0  0  0  0  0  0  0
  -25.8620   65.0710   26.1470 C   0  0  0  0  0  0  0  0  0  0  0  0
  -24.6550   64.4090   26.3940 C   0  0  0  0  0  0  0  0  0  0  0  0
  -20.2110   65.7190   23.7550 N   0  0  0  0  0  0  0  0  0  0  0  0
  -19.9850   64.7000   23.7640 H   0  0  0  0  0  0  0  0  0  0  0  0
  -20.2160   66.2170   22.8370 H   0  0  0  0  0  0  0  0  0  0  0  0
  -20.3130   69.8510   26.2280 N   0  0  0  0  0  0  0  0  0  0  0  0
  -21.0460   70.5170   26.5580 H   0  0  0  0  0  0  0  0  0  0  0  0
  -19.3900   70.2290   25.9200 H   0  0  0  0  0  0  0  0  0  0  0  0
  2 19  1  0  0  0  0
  2  1  2  0  0  0  0
  3  2  1  0  0  0  0
  4  3  2  0  0  0  0
  4  5  1  0  0  0  0
  5  6  2  0  0  0  0
  6  1  1  0  0  0  0
  7  5  1  0  0  0  0
  8  7  2  0  0  0  0
  9  8  1  0  0  0  0
  9 15  2  0  0  0  0
 10  9  1  0  0  0  0
 11 10  2  0  0  0  0
 11 12  1  0  0  0  0
 12 14  2  0  0  0  0
 13 12  1  0  0  0  0
 14 15  1  0  0  0  0
 16 17  1  0  0  0  0
 16  4  1  0  0  0  0
 18 16  1  0  0  0  0
 19 20  1  0  0  0  0
 21 19  1  0  0  0  0
M  END
>  <REMARK>
 VINA RESULT:      -5.8      2.194      3.828
  4 active torsions:
  status: ('A' for Active; 'I' for Inactive)
    1  A    between atoms: C2_2  and  N1_3 
    2  A    between atoms: C3_7  and  N3_8 
    3  A    between atoms: C4_11  and  N4_12 
    4  A    between atoms: N5_13  and  C5_14 

>  <TORSDO>
F 4

$$$$
../pdbqt/decoy.vina_out.56.pdbqt
 OpenBabel06052021513D

 21 22  0  0  0  0  0  0  0  0999 V2000
  -27.0930   64.8960   26.0000 C   0  0  0  0  0  0  0  0  0  0  0  0
  -28.1740   64.7090   25.1330 C   0  0  0  0  0  0  0  0  0  0  0  0
  -28.1450   65.2610   23.8900 N   0  0  0  0  0  0  0  0  0  0  0  0
  -27.0960   66.0100   23.4520 C   0  0  0  0  0  0  0  0  0  0  0  0
  -26.0030   66.2480   24.3070 C   0  0  0  0  0  0  0  0  0  0  0  0
  -26.0030   65.6560   25.5800 C   0  0  0  0  0  0  0  0  0  0  0  0
  -24.8710   67.0010   23.8400 N   0  0  0  0  0  0  0  0  0  0  0  0
  -23.6430   66.7360   24.0830 N   0  0  0  0  0  0  0  0  0  0  0  0
  -23.1640   65.7360   24.9980 C   0  0  0  0  0  0  0  0  0  0  0  0
  -22.7930   66.1190   26.2930 C   0  0  0  0  0  0  0  0  0  0  0  0
  -22.3580   65.1620   27.2140 C   0  0  0  0  0  0  0  0  0  0  0  0
  -22.3130   63.8110   26.8540 C   0  0  0  0  0  0  0  0  0  0  0  0
  -21.8790   62.8620   27.7700 O   0  0  0  0  0  0  0  0  0  0  0  0
  -22.7140   63.4170   25.5740 C   0  0  0  0  0  0  0  0  0  0  0  0
  -23.1510   64.3720   24.6510 C   0  0  0  0  0  0  0  0  0  0  0  0
  -27.1340   66.5570   22.1320 N   0  0  0  0  0  0  0  0  0  0  0  0
  -26.4580   66.2240   21.4090 H   0  0  0  0  0  0  0  0  0  0  0  0
  -27.8280   67.2880   21.8600 H   0  0  0  0  0  0  0  0  0  0  0  0
  -29.3030   63.9350   25.5390 N   0  0  0  0  0  0  0  0  0  0  0  0
  -30.1000   63.7650   24.8870 H   0  0  0  0  0  0  0  0  0  0  0  0
  -29.3410   63.5260   26.5000 H   0  0  0  0  0  0  0  0  0  0  0  0
  2 19  1  0  0  0  0
  2  1  2  0  0  0  0
  3  2  1  0  0  0  0
  4  3  2  0  0  0  0
  4  5  1  0  0  0  0
  5  6  2  0  0  0  0
  6  1  1  0  0  0  0
  7  8  2  0  0  0  0
  7  5  1  0  0  0  0
  8  9  1  0  0  0  0
  9 10  1  0  0  0  0
 10 11  2  0  0  0  0
 12 11  1  0  0  0  0
 12 13  1  0  0  0  0
 14 12  2  0  0  0  0
 15  9  2  0  0  0  0
 15 14  1  0  0  0  0
 16  4  1  0  0  0  0
 17 16  1  0  0  0  0
 18 16  1  0  0  0  0
 19 21  1  0  0  0  0
 20 19  1  0  0  0  0
M  END
>  <REMARK>
 VINA RESULT:      -5.8      3.766      5.822
  4 active torsions:
  status: ('A' for Active; 'I' for Inactive)
    1  A    between atoms: C2_2  and  N1_3 
    2  A    between atoms: C3_7  and  N3_8 
    3  A    between atoms: C4_11  and  N4_12 
    4  A    between atoms: N5_13  and  C5_14 

>  <TORSDO>
F 4

$$$$
../pdbqt/decoy.vina_out.56.pdbqt
 OpenBabel06052021513D

 21 22  0  0  0  0  0  0  0  0999 V2000
  -21.7430   62.6170   23.4590 C   0  0  0  0  0  0  0  0  0  0  0  0
  -20.5050   62.1000   23.8510 C   0  0  0  0  0  0  0  0  0  0  0  0
  -20.1050   62.2140   25.1460 N   0  0  0  0  0  0  0  0  0  0  0  0
  -20.8680   62.8300   26.0900 C   0  0  0  0  0  0  0  0  0  0  0  0
  -22.1070   63.3930   25.7280 C   0  0  0  0  0  0  0  0  0  0  0  0
  -22.5480   63.2530   24.4030 C   0  0  0  0  0  0  0  0  0  0  0  0
  -22.9400   64.0090   26.7240 N   0  0  0  0  0  0  0  0  0  0  0  0
  -22.9180   65.2430   27.0610 N   0  0  0  0  0  0  0  0  0  0  0  0
  -21.9500   66.2140   26.6300 C   0  0  0  0  0  0  0  0  0  0  0  0
  -20.8210   66.4500   27.4250 C   0  0  0  0  0  0  0  0  0  0  0  0
  -19.8470   67.3640   27.0130 C   0  0  0  0  0  0  0  0  0  0  0  0
  -19.9820   68.0300   25.7900 C   0  0  0  0  0  0  0  0  0  0  0  0
  -19.0140   68.9380   25.3820 O   0  0  0  0  0  0  0  0  0  0  0  0
  -21.0890   67.7740   24.9760 C   0  0  0  0  0  0  0  0  0  0  0  0
  -22.0650   66.8610   25.3850 C   0  0  0  0  0  0  0  0  0  0  0  0
  -20.3840   62.9110   27.4330 N   0  0  0  0  0  0  0  0  0  0  0  0
  -20.6430   62.1750   28.1260 H   0  0  0  0  0  0  0  0  0  0  0  0
  -19.7680   63.6930   27.7490 H   0  0  0  0  0  0  0  0  0  0  0  0
  -19.6610   61.4440   22.9030 N   0  0  0  0  0  0  0  0  0  0  0  0
  -19.9780   61.2840   21.9220 H   0  0  0  0  0  0  0  0  0  0  0  0
  -18.7110   61.1160   23.1860 H   0  0  0  0  0  0  0  0  0  0  0  0
  1  2  2  0  0  0  0
  1  6  1  0  0  0  0
  2  3  1  0  0  0  0
  3  4  2  0  0  0  0
  4 16  1  0  0  0  0
  5  4  1  0  0  0  0
  5  7  1  0  0  0  0
  6  5  2  0  0  0  0
  7  8  2  0  0  0  0
  9  8  1  0  0  0  0
  9 10  2  0  0  0  0
 11 10  1  0  0  0  0
 12 11  2  0  0  0  0
 13 12  1  0  0  0  0
 14 15  2  0  0  0  0
 14 12  1  0  0  0  0
 15  9  1  0  0  0  0
 16 18  1  0  0  0  0
 16 17  1  0  0  0  0
 19 21  1  0  0  0  0
 19  2  1  0  0  0  0
 20 19  1  0  0  0  0
M  END
>  <REMARK>
 VINA RESULT:      -5.8      3.180      3.852
  4 active torsions:
  status: ('A' for Active; 'I' for Inactive)
    1  A    between atoms: C2_2  and  N1_3 
    2  A    between atoms: C3_7  and  N3_8 
    3  A    between atoms: C4_11  and  N4_12 
    4  A    between atoms: N5_13  and  C5_14 

>  <TORSDO>
F 4

$$$$
