../pdbqt/decoy.vina_out.8.pdbqt
 OpenBabel06052021513D

 23 25  0  0  0  0  0  0  0  0999 V2000
  -28.3320   64.4010   30.2260 O   0  0  0  0  0  0  0  0  0  0  0  0
  -29.1100   64.0580   29.2940 C   0  0  0  0  0  0  0  0  0  0  0  0
  -30.4910   64.4420   29.3310 N   0  0  0  0  0  0  0  0  0  0  0  0
  -28.6250   63.2590   28.2050 N   0  0  0  0  0  0  0  0  0  0  0  0
  -31.0950   64.2310   28.5050 H   0  0  0  0  0  0  0  0  0  0  0  0
  -29.3200   62.8820   27.5230 H   0  0  0  0  0  0  0  0  0  0  0  0
  -27.2370   62.9200   28.0390 C   0  0  0  0  0  0  0  0  0  0  0  0
  -26.6920   61.8570   28.7800 C   0  0  0  0  0  0  0  0  0  0  0  0
  -25.3390   61.5380   28.6780 C   0  0  0  0  0  0  0  0  0  0  0  0
  -24.5020   62.2780   27.8430 C   0  0  0  0  0  0  0  0  0  0  0  0
  -25.0170   63.3460   27.0950 C   0  0  0  0  0  0  0  0  0  0  0  0
  -24.1730   64.0860   26.2520 C   0  0  0  0  0  0  0  0  0  0  0  0
  -26.3960   63.6760   27.1870 C   0  0  0  0  0  0  0  0  0  0  0  0
  -24.6840   65.1400   25.4940 C   0  0  0  0  0  0  0  0  0  0  0  0
  -26.0400   65.4610   25.5650 C   0  0  0  0  0  0  0  0  0  0  0  0
  -26.8940   64.7360   26.4000 C   0  0  0  0  0  0  0  0  0  0  0  0
  -31.0840   65.1540   30.4630 C   0  0  0  0  0  0  0  0  0  0  0  0
  -31.1310   66.6650   30.2070 C   0  0  0  0  0  0  0  0  0  0  0  0
  -30.5200   67.4640   31.3640 C   0  0  0  0  0  0  0  0  0  0  0  0
  -29.2100   66.8960   31.7270 N   0  0  0  0  0  0  0  0  0  0  0  0
  -28.4270   67.7270   32.6670 C   0  0  0  0  0  0  0  0  0  0  0  0
  -29.0640   66.4910   33.1410 C   0  0  0  0  0  0  0  0  0  0  0  0
  -28.6310   66.3690   31.0350 H   0  0  0  0  0  0  0  0  0  0  0  0
  2  3  1  0  0  0  0
  2  1  2  0  0  0  0
  3 17  1  0  0  0  0
  4  2  1  0  0  0  0
  5  3  1  0  0  0  0
  6  4  1  0  0  0  0
  7  4  1  0  0  0  0
  7  8  2  0  0  0  0
  9  8  1  0  0  0  0
 10  9  2  0  0  0  0
 11 13  1  0  0  0  0
 11 10  1  0  0  0  0
 12 11  2  0  0  0  0
 13  7  1  0  0  0  0
 14 15  2  0  0  0  0
 14 12  1  0  0  0  0
 15 16  1  0  0  0  0
 16 13  2  0  0  0  0
 18 17  1  0  0  0  0
 18 19  1  0  0  0  0
 19 20  1  0  0  0  0
 20 21  1  0  0  0  0
 20 22  1  0  0  0  0
 21 22  1  0  0  0  0
 23 20  1  0  0  0  0
M  END
>  <MODEL>
1

>  <REMARK>
 VINA RESULT:      -8.2      0.000      0.000
  5 active torsions:
  status: ('A' for Active; 'I' for Inactive)
       I    between atoms: C1_2  and  N1_3 
       I    between atoms: C1_2  and  N3_10 
    1  A    between atoms: N1_3  and  C2_4 
    2  A    between atoms: C2_4  and  C3_5 
    3  A    between atoms: C3_5  and  C4_6 
    4  A    between atoms: C4_6  and  N2_7 
    5  A    between atoms: N3_10  and  C7_11 

>  <TORSDO>
F 5

$$$$
../pdbqt/decoy.vina_out.8.pdbqt
 OpenBabel06052021513D

 23 25  0  0  0  0  0  0  0  0999 V2000
  -23.0340   63.5810   24.6820 O   0  0  0  0  0  0  0  0  0  0  0  0
  -22.7450   64.3120   25.6690 C   0  0  0  0  0  0  0  0  0  0  0  0
  -21.5750   64.0330   26.4510 N   0  0  0  0  0  0  0  0  0  0  0  0
  -23.5940   65.4100   26.0300 N   0  0  0  0  0  0  0  0  0  0  0  0
  -21.3000   64.7050   27.2030 H   0  0  0  0  0  0  0  0  0  0  0  0
  -23.3980   65.9100   26.9250 H   0  0  0  0  0  0  0  0  0  0  0  0
  -24.7230   65.8200   25.2390 C   0  0  0  0  0  0  0  0  0  0  0  0
  -24.5330   66.7180   24.1760 C   0  0  0  0  0  0  0  0  0  0  0  0
  -25.6160   67.1730   23.4240 C   0  0  0  0  0  0  0  0  0  0  0  0
  -26.9090   66.7460   23.7250 C   0  0  0  0  0  0  0  0  0  0  0  0
  -27.1300   65.8530   24.7820 C   0  0  0  0  0  0  0  0  0  0  0  0
  -28.4330   65.4230   25.0790 C   0  0  0  0  0  0  0  0  0  0  0  0
  -26.0330   65.3790   25.5500 C   0  0  0  0  0  0  0  0  0  0  0  0
  -28.6550   64.5210   26.1210 C   0  0  0  0  0  0  0  0  0  0  0  0
  -27.5830   64.0380   26.8700 C   0  0  0  0  0  0  0  0  0  0  0  0
  -26.2790   64.4570   26.5890 C   0  0  0  0  0  0  0  0  0  0  0  0
  -20.7270   62.8640   26.2170 C   0  0  0  0  0  0  0  0  0  0  0  0
  -19.4200   63.2580   25.5190 C   0  0  0  0  0  0  0  0  0  0  0  0
  -19.3130   62.6530   24.1140 C   0  0  0  0  0  0  0  0  0  0  0  0
  -20.2900   63.2950   23.2180 N   0  0  0  0  0  0  0  0  0  0  0  0
  -19.8090   63.4900   21.8330 C   0  0  0  0  0  0  0  0  0  0  0  0
  -20.8000   62.4450   22.1210 C   0  0  0  0  0  0  0  0  0  0  0  0
  -20.9360   64.0430   23.5580 H   0  0  0  0  0  0  0  0  0  0  0  0
  1  2  2  0  0  0  0
  2  4  1  0  0  0  0
  2  3  1  0  0  0  0
  3  5  1  0  0  0  0
  4  6  1  0  0  0  0
  7 13  1  0  0  0  0
  7  4  1  0  0  0  0
  8  7  2  0  0  0  0
  9 10  2  0  0  0  0
  9  8  1  0  0  0  0
 10 11  1  0  0  0  0
 11 12  2  0  0  0  0
 11 13  1  0  0  0  0
 12 14  1  0  0  0  0
 13 16  2  0  0  0  0
 14 15  2  0  0  0  0
 16 15  1  0  0  0  0
 17  3  1  0  0  0  0
 18 17  1  0  0  0  0
 19 18  1  0  0  0  0
 20 23  1  0  0  0  0
 20 19  1  0  0  0  0
 21 22  1  0  0  0  0
 21 20  1  0  0  0  0
 22 20  1  0  0  0  0
M  END
>  <REMARK>
 VINA RESULT:      -7.7      4.787      8.830
  5 active torsions:
  status: ('A' for Active; 'I' for Inactive)
       I    between atoms: C1_2  and  N1_3 
       I    between atoms: C1_2  and  N3_10 
    1  A    between atoms: N1_3  and  C2_4 
    2  A    between atoms: C2_4  and  C3_5 
    3  A    between atoms: C3_5  and  C4_6 
    4  A    between atoms: C4_6  and  N2_7 
    5  A    between atoms: N3_10  and  C7_11 

>  <TORSDO>
F 5

$$$$
../pdbqt/decoy.vina_out.8.pdbqt
 OpenBabel06052021513D

 23 25  0  0  0  0  0  0  0  0999 V2000
  -22.8010   62.9830   23.5180 O   0  0  0  0  0  0  0  0  0  0  0  0
  -22.0320   63.6160   24.2920 C   0  0  0  0  0  0  0  0  0  0  0  0
  -20.6140   63.5840   24.0810 N   0  0  0  0  0  0  0  0  0  0  0  0
  -22.5670   64.3490   25.4030 N   0  0  0  0  0  0  0  0  0  0  0  0
  -20.0030   64.1910   24.6730 H   0  0  0  0  0  0  0  0  0  0  0  0
  -21.8970   64.7490   26.0970 H   0  0  0  0  0  0  0  0  0  0  0  0
  -23.9780   64.5160   25.6250 C   0  0  0  0  0  0  0  0  0  0  0  0
  -24.6720   65.5220   24.9300 C   0  0  0  0  0  0  0  0  0  0  0  0
  -26.0290   65.7410   25.1620 C   0  0  0  0  0  0  0  0  0  0  0  0
  -26.7180   64.9670   26.0960 C   0  0  0  0  0  0  0  0  0  0  0  0
  -26.0510   63.9590   26.8060 C   0  0  0  0  0  0  0  0  0  0  0  0
  -26.7470   63.1800   27.7430 C   0  0  0  0  0  0  0  0  0  0  0  0
  -24.6690   63.7240   26.5740 C   0  0  0  0  0  0  0  0  0  0  0  0
  -26.0910   62.1650   28.4400 C   0  0  0  0  0  0  0  0  0  0  0  0
  -24.7390   61.9160   28.2070 C   0  0  0  0  0  0  0  0  0  0  0  0
  -24.0290   62.6830   27.2790 C   0  0  0  0  0  0  0  0  0  0  0  0
  -19.9860   62.7660   23.0430 C   0  0  0  0  0  0  0  0  0  0  0  0
  -19.7610   63.5740   21.7590 C   0  0  0  0  0  0  0  0  0  0  0  0
  -18.5400   64.4950   21.8650 C   0  0  0  0  0  0  0  0  0  0  0  0
  -17.3780   63.8600   21.2210 N   0  0  0  0  0  0  0  0  0  0  0  0
  -16.7330   64.6880   20.1790 C   0  0  0  0  0  0  0  0  0  0  0  0
  -16.0750   64.5090   21.4790 C   0  0  0  0  0  0  0  0  0  0  0  0
  -17.3500   62.8320   21.0310 H   0  0  0  0  0  0  0  0  0  0  0  0
  1  2  2  0  0  0  0
  2  4  1  0  0  0  0
  3  2  1  0  0  0  0
  3  5  1  0  0  0  0
  4  7  1  0  0  0  0
  4  6  1  0  0  0  0
  7 13  2  0  0  0  0
  8  9  2  0  0  0  0
  8  7  1  0  0  0  0
  9 10  1  0  0  0  0
 10 11  2  0  0  0  0
 11 12  1  0  0  0  0
 12 14  2  0  0  0  0
 13 11  1  0  0  0  0
 13 16  1  0  0  0  0
 15 14  1  0  0  0  0
 16 15  2  0  0  0  0
 17  3  1  0  0  0  0
 18 19  1  0  0  0  0
 18 17  1  0  0  0  0
 20 22  1  0  0  0  0
 20 19  1  0  0  0  0
 21 20  1  0  0  0  0
 21 22  1  0  0  0  0
 23 20  1  0  0  0  0
M  END
>  <REMARK>
 VINA RESULT:      -7.7      5.891      9.992
  5 active torsions:
  status: ('A' for Active; 'I' for Inactive)
       I    between atoms: C1_2  and  N1_3 
       I    between atoms: C1_2  and  N3_10 
    1  A    between atoms: N1_3  and  C2_4 
    2  A    between atoms: C2_4  and  C3_5 
    3  A    between atoms: C3_5  and  C4_6 
    4  A    between atoms: C4_6  and  N2_7 
    5  A    between atoms: N3_10  and  C7_11 

>  <TORSDO>
F 5

$$$$
../pdbqt/decoy.vina_out.8.pdbqt
 OpenBabel06052021513D

 23 25  0  0  0  0  0  0  0  0999 V2000
  -23.1320   63.9350   24.2190 O   0  0  0  0  0  0  0  0  0  0  0  0
  -22.7100   64.8320   24.9990 C   0  0  0  0  0  0  0  0  0  0  0  0
  -21.3760   64.7620   25.5190 N   0  0  0  0  0  0  0  0  0  0  0  0
  -23.5690   65.9120   25.3910 N   0  0  0  0  0  0  0  0  0  0  0  0
  -21.0130   65.5620   26.0850 H   0  0  0  0  0  0  0  0  0  0  0  0
  -23.2340   66.5610   26.1380 H   0  0  0  0  0  0  0  0  0  0  0  0
  -24.8800   66.1120   24.8360 C   0  0  0  0  0  0  0  0  0  0  0  0
  -25.0390   66.9540   23.7230 C   0  0  0  0  0  0  0  0  0  0  0  0
  -26.3040   67.2070   23.1950 C   0  0  0  0  0  0  0  0  0  0  0  0
  -27.4350   66.6310   23.7710 C   0  0  0  0  0  0  0  0  0  0  0  0
  -27.3090   65.7890   24.8850 C   0  0  0  0  0  0  0  0  0  0  0  0
  -28.4490   65.2080   25.4610 C   0  0  0  0  0  0  0  0  0  0  0  0
  -26.0230   65.5200   25.4280 C   0  0  0  0  0  0  0  0  0  0  0  0
  -28.3260   64.3560   26.5590 C   0  0  0  0  0  0  0  0  0  0  0  0
  -27.0670   64.0730   27.0890 C   0  0  0  0  0  0  0  0  0  0  0  0
  -25.9210   64.6450   26.5290 C   0  0  0  0  0  0  0  0  0  0  0  0
  -20.4830   63.6330   25.2590 C   0  0  0  0  0  0  0  0  0  0  0  0
  -19.6780   63.8450   23.9720 C   0  0  0  0  0  0  0  0  0  0  0  0
  -19.1430   65.2780   23.8570 C   0  0  0  0  0  0  0  0  0  0  0  0
  -19.2060   65.7240   22.4560 N   0  0  0  0  0  0  0  0  0  0  0  0
  -17.9340   66.2710   21.9340 C   0  0  0  0  0  0  0  0  0  0  0  0
  -18.3890   64.9420   21.5030 C   0  0  0  0  0  0  0  0  0  0  0  0
  -20.0620   66.1780   22.0620 H   0  0  0  0  0  0  0  0  0  0  0  0
  1  2  2  0  0  0  0
  2  4  1  0  0  0  0
  2  3  1  0  0  0  0
  3  5  1  0  0  0  0
  4  6  1  0  0  0  0
  7  4  1  0  0  0  0
  7 13  2  0  0  0  0
  8  7  1  0  0  0  0
  9  8  2  0  0  0  0
  9 10  1  0  0  0  0
 10 11  2  0  0  0  0
 11 13  1  0  0  0  0
 11 12  1  0  0  0  0
 12 14  2  0  0  0  0
 13 16  1  0  0  0  0
 14 15  1  0  0  0  0
 16 15  2  0  0  0  0
 17  3  1  0  0  0  0
 18 17  1  0  0  0  0
 19 18  1  0  0  0  0
 20 19  1  0  0  0  0
 21 20  1  0  0  0  0
 22 21  1  0  0  0  0
 22 20  1  0  0  0  0
 23 20  1  0  0  0  0
M  END
>  <REMARK>
 VINA RESULT:      -7.6      5.092      9.193
  5 active torsions:
  status: ('A' for Active; 'I' for Inactive)
       I    between atoms: C1_2  and  N1_3 
       I    between atoms: C1_2  and  N3_10 
    1  A    between atoms: N1_3  and  C2_4 
    2  A    between atoms: C2_4  and  C3_5 
    3  A    between atoms: C3_5  and  C4_6 
    4  A    between atoms: C4_6  and  N2_7 
    5  A    between atoms: N3_10  and  C7_11 

>  <TORSDO>
F 5

$$$$
../pdbqt/decoy.vina_out.8.pdbqt
 OpenBabel06052021513D

 23 25  0  0  0  0  0  0  0  0999 V2000
  -22.7960   63.1170   23.7760 O   0  0  0  0  0  0  0  0  0  0  0  0
  -22.1110   63.9900   24.3750 C   0  0  0  0  0  0  0  0  0  0  0  0
  -20.7310   64.1800   24.0330 N   0  0  0  0  0  0  0  0  0  0  0  0
  -22.6980   64.7800   25.4190 N   0  0  0  0  0  0  0  0  0  0  0  0
  -20.2080   64.9710   24.4720 H   0  0  0  0  0  0  0  0  0  0  0  0
  -22.0710   65.3970   25.9810 H   0  0  0  0  0  0  0  0  0  0  0  0
  -24.0960   64.7250   25.7510 C   0  0  0  0  0  0  0  0  0  0  0  0
  -24.5360   63.8340   26.7440 C   0  0  0  0  0  0  0  0  0  0  0  0
  -25.8910   63.7210   27.0510 C   0  0  0  0  0  0  0  0  0  0  0  0
  -26.8340   64.4900   26.3690 C   0  0  0  0  0  0  0  0  0  0  0  0
  -26.4250   65.3860   25.3720 C   0  0  0  0  0  0  0  0  0  0  0  0
  -27.3750   66.1620   24.6890 C   0  0  0  0  0  0  0  0  0  0  0  0
  -25.0460   65.5120   25.0540 C   0  0  0  0  0  0  0  0  0  0  0  0
  -26.9710   67.0670   23.7070 C   0  0  0  0  0  0  0  0  0  0  0  0
  -25.6180   67.2090   23.3990 C   0  0  0  0  0  0  0  0  0  0  0  0
  -24.6580   66.4430   24.0670 C   0  0  0  0  0  0  0  0  0  0  0  0
  -20.0320   63.3350   23.0650 C   0  0  0  0  0  0  0  0  0  0  0  0
  -18.5360   63.2390   23.3880 C   0  0  0  0  0  0  0  0  0  0  0  0
  -17.7150   64.2870   22.6260 C   0  0  0  0  0  0  0  0  0  0  0  0
  -17.1800   63.6980   21.3870 N   0  0  0  0  0  0  0  0  0  0  0  0
  -16.9350   64.6770   20.3060 C   0  0  0  0  0  0  0  0  0  0  0  0
  -15.8010   64.0990   21.0380 C   0  0  0  0  0  0  0  0  0  0  0  0
  -17.4840   62.7550   21.0530 H   0  0  0  0  0  0  0  0  0  0  0  0
  1  2  2  0  0  0  0
  2  4  1  0  0  0  0
  3  2  1  0  0  0  0
  3  5  1  0  0  0  0
  4  7  1  0  0  0  0
  4  6  1  0  0  0  0
  7  8  2  0  0  0  0
  8  9  1  0  0  0  0
 10  9  2  0  0  0  0
 11 10  1  0  0  0  0
 12 11  2  0  0  0  0
 13 11  1  0  0  0  0
 13  7  1  0  0  0  0
 14 12  1  0  0  0  0
 15 14  2  0  0  0  0
 15 16  1  0  0  0  0
 16 13  2  0  0  0  0
 17 18  1  0  0  0  0
 17  3  1  0  0  0  0
 19 18  1  0  0  0  0
 20 19  1  0  0  0  0
 21 22  1  0  0  0  0
 21 20  1  0  0  0  0
 22 20  1  0  0  0  0
 23 20  1  0  0  0  0
M  END
>  <REMARK>
 VINA RESULT:      -7.5      5.986      9.919
  5 active torsions:
  status: ('A' for Active; 'I' for Inactive)
       I    between atoms: C1_2  and  N1_3 
       I    between atoms: C1_2  and  N3_10 
    1  A    between atoms: N1_3  and  C2_4 
    2  A    between atoms: C2_4  and  C3_5 
    3  A    between atoms: C3_5  and  C4_6 
    4  A    between atoms: C4_6  and  N2_7 
    5  A    between atoms: N3_10  and  C7_11 

>  <TORSDO>
F 5

$$$$
../pdbqt/decoy.vina_out.8.pdbqt
 OpenBabel06052021513D

 23 25  0  0  0  0  0  0  0  0999 V2000
  -21.8750   64.2870   25.0160 O   0  0  0  0  0  0  0  0  0  0  0  0
  -21.7770   65.5440   25.0400 C   0  0  0  0  0  0  0  0  0  0  0  0
  -20.5420   66.1750   24.6750 N   0  0  0  0  0  0  0  0  0  0  0  0
  -22.8880   66.3490   25.4570 N   0  0  0  0  0  0  0  0  0  0  0  0
  -20.5100   67.2180   24.6090 H   0  0  0  0  0  0  0  0  0  0  0  0
  -22.7320   67.3720   25.5930 H   0  0  0  0  0  0  0  0  0  0  0  0
  -24.1890   65.8030   25.7390 C   0  0  0  0  0  0  0  0  0  0  0  0
  -24.3690   64.9970   26.8760 C   0  0  0  0  0  0  0  0  0  0  0  0
  -25.6050   64.4120   27.1470 C   0  0  0  0  0  0  0  0  0  0  0  0
  -26.6830   64.6140   26.2850 C   0  0  0  0  0  0  0  0  0  0  0  0
  -26.5330   65.4100   25.1420 C   0  0  0  0  0  0  0  0  0  0  0  0
  -27.6200   65.6140   24.2780 C   0  0  0  0  0  0  0  0  0  0  0  0
  -25.2780   66.0150   24.8590 C   0  0  0  0  0  0  0  0  0  0  0  0
  -27.4790   66.4200   23.1470 C   0  0  0  0  0  0  0  0  0  0  0  0
  -26.2560   67.0310   22.8700 C   0  0  0  0  0  0  0  0  0  0  0  0
  -25.1620   66.8370   23.7180 C   0  0  0  0  0  0  0  0  0  0  0  0
  -19.3320   65.4200   24.3520 C   0  0  0  0  0  0  0  0  0  0  0  0
  -18.9920   65.5240   22.8610 C   0  0  0  0  0  0  0  0  0  0  0  0
  -19.1940   64.1920   22.1300 C   0  0  0  0  0  0  0  0  0  0  0  0
  -20.2120   63.3890   22.8270 N   0  0  0  0  0  0  0  0  0  0  0  0
  -20.7800   62.2890   22.0170 C   0  0  0  0  0  0  0  0  0  0  0  0
  -19.8360   61.9850   23.1000 C   0  0  0  0  0  0  0  0  0  0  0  0
  -20.8880   63.8220   23.4970 H   0  0  0  0  0  0  0  0  0  0  0  0
  1  2  2  0  0  0  0
  2  4  1  0  0  0  0
  3  2  1  0  0  0  0
  4  6  1  0  0  0  0
  4  7  1  0  0  0  0
  5  3  1  0  0  0  0
  7  8  2  0  0  0  0
  8  9  1  0  0  0  0
 10  9  2  0  0  0  0
 11 10  1  0  0  0  0
 12 11  2  0  0  0  0
 13 11  1  0  0  0  0
 13  7  1  0  0  0  0
 14 12  1  0  0  0  0
 15 14  2  0  0  0  0
 15 16  1  0  0  0  0
 16 13  2  0  0  0  0
 17  3  1  0  0  0  0
 18 17  1  0  0  0  0
 19 20  1  0  0  0  0
 19 18  1  0  0  0  0
 20 22  1  0  0  0  0
 20 23  1  0  0  0  0
 21 20  1  0  0  0  0
 21 22  1  0  0  0  0
M  END
>  <REMARK>
 VINA RESULT:      -7.4      5.268      9.067
  5 active torsions:
  status: ('A' for Active; 'I' for Inactive)
       I    between atoms: C1_2  and  N1_3 
       I    between atoms: C1_2  and  N3_10 
    1  A    between atoms: N1_3  and  C2_4 
    2  A    between atoms: C2_4  and  C3_5 
    3  A    between atoms: C3_5  and  C4_6 
    4  A    between atoms: C4_6  and  N2_7 
    5  A    between atoms: N3_10  and  C7_11 

>  <TORSDO>
F 5

$$$$
../pdbqt/decoy.vina_out.8.pdbqt
 OpenBabel06052021513D

 23 25  0  0  0  0  0  0  0  0999 V2000
  -23.2140   62.8300   26.4210 O   0  0  0  0  0  0  0  0  0  0  0  0
  -22.7580   63.9790   26.6660 C   0  0  0  0  0  0  0  0  0  0  0  0
  -21.3480   64.1680   26.8520 N   0  0  0  0  0  0  0  0  0  0  0  0
  -23.6450   65.1000   26.7870 N   0  0  0  0  0  0  0  0  0  0  0  0
  -20.9800   65.1400   26.9580 H   0  0  0  0  0  0  0  0  0  0  0  0
  -23.2500   66.0070   27.1210 H   0  0  0  0  0  0  0  0  0  0  0  0
  -25.0540   65.0160   26.5150 C   0  0  0  0  0  0  0  0  0  0  0  0
  -25.8840   64.2890   27.3850 C   0  0  0  0  0  0  0  0  0  0  0  0
  -27.2460   64.1470   27.1190 C   0  0  0  0  0  0  0  0  0  0  0  0
  -27.8030   64.7210   25.9770 C   0  0  0  0  0  0  0  0  0  0  0  0
  -26.9990   65.4500   25.0890 C   0  0  0  0  0  0  0  0  0  0  0  0
  -27.5640   66.0300   23.9420 C   0  0  0  0  0  0  0  0  0  0  0  0
  -25.6120   65.6050   25.3530 C   0  0  0  0  0  0  0  0  0  0  0  0
  -26.7700   66.7700   23.0650 C   0  0  0  0  0  0  0  0  0  0  0  0
  -25.4110   66.9410   23.3240 C   0  0  0  0  0  0  0  0  0  0  0  0
  -24.8310   66.3690   24.4610 C   0  0  0  0  0  0  0  0  0  0  0  0
  -20.3950   63.0580   26.8590 C   0  0  0  0  0  0  0  0  0  0  0  0
  -19.3400   63.2230   25.7590 C   0  0  0  0  0  0  0  0  0  0  0  0
  -19.9700   63.5650   24.4040 C   0  0  0  0  0  0  0  0  0  0  0  0
  -20.5990   62.3640   23.8290 N   0  0  0  0  0  0  0  0  0  0  0  0
  -21.9210   62.6070   23.2120 C   0  0  0  0  0  0  0  0  0  0  0  0
  -20.7500   62.3690   22.3580 C   0  0  0  0  0  0  0  0  0  0  0  0
  -20.5000   61.4250   24.2770 H   0  0  0  0  0  0  0  0  0  0  0  0
  1  2  2  0  0  0  0
  2  4  1  0  0  0  0
  2  3  1  0  0  0  0
  3 17  1  0  0  0  0
  3  5  1  0  0  0  0
  4  6  1  0  0  0  0
  7  4  1  0  0  0  0
  7  8  2  0  0  0  0
  9  8  1  0  0  0  0
 10  9  2  0  0  0  0
 11 13  1  0  0  0  0
 11 10  1  0  0  0  0
 12 11  2  0  0  0  0
 13  7  1  0  0  0  0
 14 15  2  0  0  0  0
 14 12  1  0  0  0  0
 15 16  1  0  0  0  0
 16 13  2  0  0  0  0
 18 17  1  0  0  0  0
 19 18  1  0  0  0  0
 20 23  1  0  0  0  0
 20 19  1  0  0  0  0
 21 20  1  0  0  0  0
 22 21  1  0  0  0  0
 22 20  1  0  0  0  0
M  END
>  <REMARK>
 VINA RESULT:      -7.4      4.552      8.155
  5 active torsions:
  status: ('A' for Active; 'I' for Inactive)
       I    between atoms: C1_2  and  N1_3 
       I    between atoms: C1_2  and  N3_10 
    1  A    between atoms: N1_3  and  C2_4 
    2  A    between atoms: C2_4  and  C3_5 
    3  A    between atoms: C3_5  and  C4_6 
    4  A    between atoms: C4_6  and  N2_7 
    5  A    between atoms: N3_10  and  C7_11 

>  <TORSDO>
F 5

$$$$
../pdbqt/decoy.vina_out.8.pdbqt
 OpenBabel06052021513D

 23 25  0  0  0  0  0  0  0  0999 V2000
  -21.6730   64.3980   24.3490 O   0  0  0  0  0  0  0  0  0  0  0  0
  -21.5190   65.6400   24.5020 C   0  0  0  0  0  0  0  0  0  0  0  0
  -20.3380   66.2840   24.0030 N   0  0  0  0  0  0  0  0  0  0  0  0
  -22.5080   66.4130   25.1950 N   0  0  0  0  0  0  0  0  0  0  0  0
  -20.2730   67.3260   24.0530 H   0  0  0  0  0  0  0  0  0  0  0  0
  -22.2880   67.4090   25.4190 H   0  0  0  0  0  0  0  0  0  0  0  0
  -23.7640   65.8660   25.6330 C   0  0  0  0  0  0  0  0  0  0  0  0
  -23.7990   65.0390   26.7690 C   0  0  0  0  0  0  0  0  0  0  0  0
  -24.9930   64.4530   27.1870 C   0  0  0  0  0  0  0  0  0  0  0  0
  -26.1730   64.6740   26.4760 C   0  0  0  0  0  0  0  0  0  0  0  0
  -26.1680   65.4920   25.3380 C   0  0  0  0  0  0  0  0  0  0  0  0
  -27.3570   65.7150   24.6270 C   0  0  0  0  0  0  0  0  0  0  0  0
  -24.9570   66.0980   24.9060 C   0  0  0  0  0  0  0  0  0  0  0  0
  -27.3590   66.5420   23.5020 C   0  0  0  0  0  0  0  0  0  0  0  0
  -26.1800   67.1540   23.0800 C   0  0  0  0  0  0  0  0  0  0  0  0
  -24.9850   66.9410   23.7750 C   0  0  0  0  0  0  0  0  0  0  0  0
  -19.2330   65.5470   23.3900 C   0  0  0  0  0  0  0  0  0  0  0  0
  -17.9230   66.3390   23.4710 C   0  0  0  0  0  0  0  0  0  0  0  0
  -17.0960   66.2170   22.1850 C   0  0  0  0  0  0  0  0  0  0  0  0
  -17.1560   64.8350   21.6830 N   0  0  0  0  0  0  0  0  0  0  0  0
  -16.9780   64.7120   20.2190 C   0  0  0  0  0  0  0  0  0  0  0  0
  -15.8930   64.3070   21.1230 C   0  0  0  0  0  0  0  0  0  0  0  0
  -17.8060   64.1280   22.0970 H   0  0  0  0  0  0  0  0  0  0  0  0
  1  2  2  0  0  0  0
  2  4  1  0  0  0  0
  3  5  1  0  0  0  0
  3  2  1  0  0  0  0
  4  6  1  0  0  0  0
  4  7  1  0  0  0  0
  7  8  2  0  0  0  0
  8  9  1  0  0  0  0
 10  9  2  0  0  0  0
 11 10  1  0  0  0  0
 12 11  2  0  0  0  0
 13 11  1  0  0  0  0
 13  7  1  0  0  0  0
 14 12  1  0  0  0  0
 15 14  2  0  0  0  0
 15 16  1  0  0  0  0
 16 13  2  0  0  0  0
 17 18  1  0  0  0  0
 17  3  1  0  0  0  0
 19 18  1  0  0  0  0
 20 23  1  0  0  0  0
 20 19  1  0  0  0  0
 21 22  1  0  0  0  0
 21 20  1  0  0  0  0
 22 20  1  0  0  0  0
M  END
>  <REMARK>
 VINA RESULT:      -7.3      6.274     10.108
  5 active torsions:
  status: ('A' for Active; 'I' for Inactive)
       I    between atoms: C1_2  and  N1_3 
       I    between atoms: C1_2  and  N3_10 
    1  A    between atoms: N1_3  and  C2_4 
    2  A    between atoms: C2_4  and  C3_5 
    3  A    between atoms: C3_5  and  C4_6 
    4  A    between atoms: C4_6  and  N2_7 
    5  A    between atoms: N3_10  and  C7_11 

>  <TORSDO>
F 5

$$$$
../pdbqt/decoy.vina_out.8.pdbqt
 OpenBabel06052021513D

 23 25  0  0  0  0  0  0  0  0999 V2000
  -23.0470   63.6230   24.7050 O   0  0  0  0  0  0  0  0  0  0  0  0
  -22.7860   64.3500   25.7030 C   0  0  0  0  0  0  0  0  0  0  0  0
  -21.6260   64.0820   26.5030 N   0  0  0  0  0  0  0  0  0  0  0  0
  -23.6590   65.4310   26.0590 N   0  0  0  0  0  0  0  0  0  0  0  0
  -21.3750   64.7510   27.2660 H   0  0  0  0  0  0  0  0  0  0  0  0
  -23.4870   65.9260   26.9620 H   0  0  0  0  0  0  0  0  0  0  0  0
  -24.7810   65.8300   25.2530 C   0  0  0  0  0  0  0  0  0  0  0  0
  -24.5840   66.7290   24.1910 C   0  0  0  0  0  0  0  0  0  0  0  0
  -25.6610   67.1730   23.4250 C   0  0  0  0  0  0  0  0  0  0  0  0
  -26.9540   66.7350   23.7070 C   0  0  0  0  0  0  0  0  0  0  0  0
  -27.1810   65.8400   24.7620 C   0  0  0  0  0  0  0  0  0  0  0  0
  -28.4840   65.3990   25.0420 C   0  0  0  0  0  0  0  0  0  0  0  0
  -26.0910   65.3770   25.5460 C   0  0  0  0  0  0  0  0  0  0  0  0
  -28.7120   64.4950   26.0810 C   0  0  0  0  0  0  0  0  0  0  0  0
  -27.6460   64.0230   26.8460 C   0  0  0  0  0  0  0  0  0  0  0  0
  -26.3420   64.4540   26.5820 C   0  0  0  0  0  0  0  0  0  0  0  0
  -20.7550   62.9300   26.2730 C   0  0  0  0  0  0  0  0  0  0  0  0
  -19.5550   63.3060   25.3960 C   0  0  0  0  0  0  0  0  0  0  0  0
  -18.2480   63.3490   26.1960 C   0  0  0  0  0  0  0  0  0  0  0  0
  -18.4960   62.9190   27.5820 N   0  0  0  0  0  0  0  0  0  0  0  0
  -17.2710   62.7490   28.3940 C   0  0  0  0  0  0  0  0  0  0  0  0
  -18.1450   63.9060   28.6250 C   0  0  0  0  0  0  0  0  0  0  0  0
  -19.2650   62.2530   27.8200 H   0  0  0  0  0  0  0  0  0  0  0  0
  1  2  2  0  0  0  0
  2  4  1  0  0  0  0
  2  3  1  0  0  0  0
  3  5  1  0  0  0  0
  4  6  1  0  0  0  0
  7 13  1  0  0  0  0
  7  4  1  0  0  0  0
  8  7  2  0  0  0  0
  9 10  2  0  0  0  0
  9  8  1  0  0  0  0
 10 11  1  0  0  0  0
 11 12  2  0  0  0  0
 11 13  1  0  0  0  0
 12 14  1  0  0  0  0
 13 16  2  0  0  0  0
 14 15  2  0  0  0  0
 16 15  1  0  0  0  0
 17  3  1  0  0  0  0
 18 19  1  0  0  0  0
 18 17  1  0  0  0  0
 19 20  1  0  0  0  0
 20 23  1  0  0  0  0
 20 21  1  0  0  0  0
 20 22  1  0  0  0  0
 21 22  1  0  0  0  0
M  END
>  <REMARK>
 VINA RESULT:      -7.1      4.778      8.449
  5 active torsions:
  status: ('A' for Active; 'I' for Inactive)
       I    between atoms: C1_2  and  N1_3 
       I    between atoms: C1_2  and  N3_10 
    1  A    between atoms: N1_3  and  C2_4 
    2  A    between atoms: C2_4  and  C3_5 
    3  A    between atoms: C3_5  and  C4_6 
    4  A    between atoms: C4_6  and  N2_7 
    5  A    between atoms: N3_10  and  C7_11 

>  <TORSDO>
F 5

$$$$
