../pdbqt/decoy.vina_out.60.pdbqt
 OpenBabel06052021513D

 17 18  0  0  0  0  0  0  0  0999 V2000
  -24.0740   66.3080   24.8380 C   0  0  0  0  0  0  0  0  0  0  0  0
  -25.5030   65.8560   24.9860 C   0  0  0  0  0  0  0  0  0  0  0  0
  -26.5100   66.2430   24.1680 C   0  0  0  0  0  0  0  0  0  0  0  0
  -28.0390   65.5170   24.6440 S   0  0  0  0  0  0  0  0  0  0  0  0
  -29.0480   66.5360   25.0940 O   0  0  0  0  0  0  0  0  0  0  0  0
  -28.5870   64.5820   23.6030 O   0  0  0  0  0  0  0  0  0  0  0  0
  -27.3230   64.6740   25.9700 C   0  0  0  0  0  0  0  0  0  0  0  0
  -27.9720   63.8320   26.8710 C   0  0  0  0  0  0  0  0  0  0  0  0
  -27.2180   63.2320   27.8890 C   0  0  0  0  0  0  0  0  0  0  0  0
  -25.8400   63.4830   27.9880 C   0  0  0  0  0  0  0  0  0  0  0  0
  -25.2050   64.3350   27.0690 C   0  0  0  0  0  0  0  0  0  0  0  0
  -25.9660   64.9320   26.0520 C   0  0  0  0  0  0  0  0  0  0  0  0
  -26.3970   67.1600   23.0020 C   0  0  0  0  0  0  0  0  0  0  0  0
  -26.8770   66.7720   21.7120 N   0  0  0  0  0  0  0  0  0  0  0  0
  -26.7900   67.4290   20.9060 H   0  0  0  0  0  0  0  0  0  0  0  0
  -27.3200   65.8440   21.5420 H   0  0  0  0  0  0  0  0  0  0  0  0
  -25.8740   68.3000   23.1300 O   0  0  0  0  0  0  0  0  0  0  0  0
  1  2  1  0  0  0  0
  2 12  1  0  0  0  0
  3  4  1  0  0  0  0
  3  2  2  0  0  0  0
  4  5  2  0  0  0  0
  4  7  1  0  0  0  0
  6  4  2  0  0  0  0
  7 12  2  0  0  0  0
  7  8  1  0  0  0  0
  8  9  2  0  0  0  0
  9 10  1  0  0  0  0
 11 10  2  0  0  0  0
 12 11  1  0  0  0  0
 13 17  2  0  0  0  0
 13  3  1  0  0  0  0
 14 13  1  0  0  0  0
 15 14  1  0  0  0  0
 16 14  1  0  0  0  0
M  END
>  <MODEL>
1

>  <REMARK>
 VINA RESULT:      -8.7      0.000      0.000
  1 active torsions:
  status: ('A' for Active; 'I' for Inactive)
    1  A    between atoms: C3_3  and  C4_4 
       I    between atoms: C4_4  and  N1_5 

>  <TORSDO>
F 1

$$$$
../pdbqt/decoy.vina_out.60.pdbqt
 OpenBabel06052021513D

 17 18  0  0  0  0  0  0  0  0999 V2000
  -28.6080   66.0600   24.8160 C   0  0  0  0  0  0  0  0  0  0  0  0
  -27.1530   65.7040   24.9710 C   0  0  0  0  0  0  0  0  0  0  0  0
  -26.1640   66.1880   24.1840 C   0  0  0  0  0  0  0  0  0  0  0  0
  -24.5950   65.5530   24.6590 S   0  0  0  0  0  0  0  0  0  0  0  0
  -23.9710   64.6970   23.5940 O   0  0  0  0  0  0  0  0  0  0  0  0
  -23.6650   66.6210   25.1610 O   0  0  0  0  0  0  0  0  0  0  0  0
  -25.2700   64.6140   25.9420 C   0  0  0  0  0  0  0  0  0  0  0  0
  -24.5760   63.7870   26.8230 C   0  0  0  0  0  0  0  0  0  0  0  0
  -25.3000   63.1000   27.8070 C   0  0  0  0  0  0  0  0  0  0  0  0
  -26.6940   63.2510   27.8920 C   0  0  0  0  0  0  0  0  0  0  0  0
  -27.3740   64.0910   26.9940 C   0  0  0  0  0  0  0  0  0  0  0  0
  -26.6420   64.7750   26.0110 C   0  0  0  0  0  0  0  0  0  0  0  0
  -26.3250   67.1380   23.0500 C   0  0  0  0  0  0  0  0  0  0  0  0
  -26.8890   66.7100   21.8070 N   0  0  0  0  0  0  0  0  0  0  0  0
  -26.9950   67.3910   21.0230 H   0  0  0  0  0  0  0  0  0  0  0  0
  -27.2060   65.7300   21.6510 H   0  0  0  0  0  0  0  0  0  0  0  0
  -25.9650   68.3410   23.1630 O   0  0  0  0  0  0  0  0  0  0  0  0
  1  2  1  0  0  0  0
  2 12  1  0  0  0  0
  3  4  1  0  0  0  0
  3  2  2  0  0  0  0
  4  6  2  0  0  0  0
  4  7  1  0  0  0  0
  5  4  2  0  0  0  0
  7 12  2  0  0  0  0
  7  8  1  0  0  0  0
  8  9  2  0  0  0  0
  9 10  1  0  0  0  0
 11 10  2  0  0  0  0
 12 11  1  0  0  0  0
 13 17  2  0  0  0  0
 13  3  1  0  0  0  0
 14 13  1  0  0  0  0
 15 14  1  0  0  0  0
 16 14  1  0  0  0  0
M  END
>  <REMARK>
 VINA RESULT:      -8.2      1.977      2.865
  1 active torsions:
  status: ('A' for Active; 'I' for Inactive)
    1  A    between atoms: C3_3  and  C4_4 
       I    between atoms: C4_4  and  N1_5 

>  <TORSDO>
F 1

$$$$
../pdbqt/decoy.vina_out.60.pdbqt
 OpenBabel06052021513D

 17 18  0  0  0  0  0  0  0  0999 V2000
  -24.3550   63.8500   27.0290 C   0  0  0  0  0  0  0  0  0  0  0  0
  -25.6570   64.3650   26.4750 C   0  0  0  0  0  0  0  0  0  0  0  0
  -26.8770   63.9460   26.8870 C   0  0  0  0  0  0  0  0  0  0  0  0
  -28.1660   64.7660   26.0190 S   0  0  0  0  0  0  0  0  0  0  0  0
  -28.9830   63.8290   25.1740 O   0  0  0  0  0  0  0  0  0  0  0  0
  -29.0140   65.6250   26.9140 O   0  0  0  0  0  0  0  0  0  0  0  0
  -27.0550   65.6950   25.0780 C   0  0  0  0  0  0  0  0  0  0  0  0
  -27.3750   66.6360   24.1010 C   0  0  0  0  0  0  0  0  0  0  0  0
  -26.3300   67.2950   23.4390 C   0  0  0  0  0  0  0  0  0  0  0  0
  -24.9940   67.0040   23.7630 C   0  0  0  0  0  0  0  0  0  0  0  0
  -24.6950   66.0510   24.7510 C   0  0  0  0  0  0  0  0  0  0  0  0
  -25.7470   65.3950   25.4100 C   0  0  0  0  0  0  0  0  0  0  0  0
  -27.1510   62.9260   27.9360 C   0  0  0  0  0  0  0  0  0  0  0  0
  -28.4400   62.8270   28.5460 N   0  0  0  0  0  0  0  0  0  0  0  0
  -28.6140   62.1050   29.2790 H   0  0  0  0  0  0  0  0  0  0  0  0
  -29.2280   63.4580   28.2830 H   0  0  0  0  0  0  0  0  0  0  0  0
  -26.2490   62.1270   28.3070 O   0  0  0  0  0  0  0  0  0  0  0  0
  2  3  2  0  0  0  0
  2  1  1  0  0  0  0
  3 13  1  0  0  0  0
  4  3  1  0  0  0  0
  4  6  2  0  0  0  0
  5  4  2  0  0  0  0
  7 12  1  0  0  0  0
  7  4  1  0  0  0  0
  8  7  2  0  0  0  0
  9 10  2  0  0  0  0
  9  8  1  0  0  0  0
 10 11  1  0  0  0  0
 11 12  2  0  0  0  0
 12  2  1  0  0  0  0
 13 17  2  0  0  0  0
 13 14  1  0  0  0  0
 14 15  1  0  0  0  0
 16 14  1  0  0  0  0
M  END
>  <REMARK>
 VINA RESULT:      -7.6      2.792      4.604
  1 active torsions:
  status: ('A' for Active; 'I' for Inactive)
    1  A    between atoms: C3_3  and  C4_4 
       I    between atoms: C4_4  and  N1_5 

>  <TORSDO>
F 1

$$$$
../pdbqt/decoy.vina_out.60.pdbqt
 OpenBabel06052021513D

 17 18  0  0  0  0  0  0  0  0999 V2000
  -28.6270   64.2830   26.0950 C   0  0  0  0  0  0  0  0  0  0  0  0
  -27.1760   64.2650   26.4960 C   0  0  0  0  0  0  0  0  0  0  0  0
  -26.6790   63.5290   27.5180 C   0  0  0  0  0  0  0  0  0  0  0  0
  -24.9450   63.7600   27.6940 S   0  0  0  0  0  0  0  0  0  0  0  0
  -24.5760   64.4070   28.9990 O   0  0  0  0  0  0  0  0  0  0  0  0
  -24.1630   62.5040   27.4290 O   0  0  0  0  0  0  0  0  0  0  0  0
  -24.8740   64.8680   26.3700 C   0  0  0  0  0  0  0  0  0  0  0  0
  -23.7390   65.5150   25.8850 C   0  0  0  0  0  0  0  0  0  0  0  0
  -23.8780   66.3840   24.7950 C   0  0  0  0  0  0  0  0  0  0  0  0
  -25.1410   66.5900   24.2140 C   0  0  0  0  0  0  0  0  0  0  0  0
  -26.2720   65.9280   24.7190 C   0  0  0  0  0  0  0  0  0  0  0  0
  -26.1250   65.0590   25.8110 C   0  0  0  0  0  0  0  0  0  0  0  0
  -27.4530   62.6240   28.4120 C   0  0  0  0  0  0  0  0  0  0  0  0
  -28.7590   62.9840   28.8700 N   0  0  0  0  0  0  0  0  0  0  0  0
  -29.2870   62.3370   29.4950 H   0  0  0  0  0  0  0  0  0  0  0  0
  -29.2130   63.8830   28.5980 H   0  0  0  0  0  0  0  0  0  0  0  0
  -26.9700   61.5210   28.7820 O   0  0  0  0  0  0  0  0  0  0  0  0
  1  2  1  0  0  0  0
  2  3  2  0  0  0  0
  3  4  1  0  0  0  0
  3 13  1  0  0  0  0
  4  5  2  0  0  0  0
  6  4  2  0  0  0  0
  7  4  1  0  0  0  0
  8  7  1  0  0  0  0
  9  8  2  0  0  0  0
 10 11  2  0  0  0  0
 10  9  1  0  0  0  0
 11 12  1  0  0  0  0
 12  7  2  0  0  0  0
 12  2  1  0  0  0  0
 13 17  2  0  0  0  0
 13 14  1  0  0  0  0
 14 15  1  0  0  0  0
 16 14  1  0  0  0  0
M  END
>  <REMARK>
 VINA RESULT:      -7.4      3.908      5.443
  1 active torsions:
  status: ('A' for Active; 'I' for Inactive)
    1  A    between atoms: C3_3  and  C4_4 
       I    between atoms: C4_4  and  N1_5 

>  <TORSDO>
F 1

$$$$
../pdbqt/decoy.vina_out.60.pdbqt
 OpenBabel06052021513D

 17 18  0  0  0  0  0  0  0  0999 V2000
  -27.9360   64.0030   27.1620 C   0  0  0  0  0  0  0  0  0  0  0  0
  -26.6070   64.4230   26.5910 C   0  0  0  0  0  0  0  0  0  0  0  0
  -25.4110   63.9830   27.0490 C   0  0  0  0  0  0  0  0  0  0  0  0
  -24.0780   64.6870   26.1440 S   0  0  0  0  0  0  0  0  0  0  0  0
  -23.2060   65.5710   26.9900 O   0  0  0  0  0  0  0  0  0  0  0  0
  -23.2920   63.6610   25.3780 O   0  0  0  0  0  0  0  0  0  0  0  0
  -25.1390   65.5940   25.1260 C   0  0  0  0  0  0  0  0  0  0  0  0
  -24.7690   66.4520   24.0910 C   0  0  0  0  0  0  0  0  0  0  0  0
  -25.7780   67.1050   23.3700 C   0  0  0  0  0  0  0  0  0  0  0  0
  -27.1280   66.8920   23.6950 C   0  0  0  0  0  0  0  0  0  0  0  0
  -27.4790   66.0230   24.7420 C   0  0  0  0  0  0  0  0  0  0  0  0
  -26.4630   65.3730   25.4590 C   0  0  0  0  0  0  0  0  0  0  0  0
  -25.1920   63.0280   28.1690 C   0  0  0  0  0  0  0  0  0  0  0  0
  -24.9630   63.4960   29.5000 N   0  0  0  0  0  0  0  0  0  0  0  0
  -24.8120   62.8120   30.2730 H   0  0  0  0  0  0  0  0  0  0  0  0
  -24.9430   64.5120   29.7340 H   0  0  0  0  0  0  0  0  0  0  0  0
  -25.2030   61.7840   27.9640 O   0  0  0  0  0  0  0  0  0  0  0  0
  2  3  2  0  0  0  0
  2  1  1  0  0  0  0
  3 13  1  0  0  0  0
  4  5  2  0  0  0  0
  4  3  1  0  0  0  0
  6  4  2  0  0  0  0
  7 12  1  0  0  0  0
  7  4  1  0  0  0  0
  8  7  2  0  0  0  0
  9 10  2  0  0  0  0
  9  8  1  0  0  0  0
 10 11  1  0  0  0  0
 11 12  2  0  0  0  0
 12  2  1  0  0  0  0
 13 14  1  0  0  0  0
 14 16  1  0  0  0  0
 14 15  1  0  0  0  0
 17 13  2  0  0  0  0
M  END
>  <REMARK>
 VINA RESULT:      -7.2      3.661      5.395
  1 active torsions:
  status: ('A' for Active; 'I' for Inactive)
    1  A    between atoms: C3_3  and  C4_4 
       I    between atoms: C4_4  and  N1_5 

>  <TORSDO>
F 1

$$$$
../pdbqt/decoy.vina_out.60.pdbqt
 OpenBabel06052021513D

 17 18  0  0  0  0  0  0  0  0999 V2000
  -23.8670   66.3130   24.9810 C   0  0  0  0  0  0  0  0  0  0  0  0
  -24.7450   65.4390   25.8370 C   0  0  0  0  0  0  0  0  0  0  0  0
  -24.3090   64.7510   26.9190 C   0  0  0  0  0  0  0  0  0  0  0  0
  -25.6120   63.8410   27.6700 S   0  0  0  0  0  0  0  0  0  0  0  0
  -25.3950   62.3550   27.6010 O   0  0  0  0  0  0  0  0  0  0  0  0
  -25.9250   64.3160   29.0610 O   0  0  0  0  0  0  0  0  0  0  0  0
  -26.7730   64.3870   26.5140 C   0  0  0  0  0  0  0  0  0  0  0  0
  -28.1250   64.0540   26.4700 C   0  0  0  0  0  0  0  0  0  0  0  0
  -28.9160   64.6000   25.4500 C   0  0  0  0  0  0  0  0  0  0  0  0
  -28.3460   65.4620   24.4990 C   0  0  0  0  0  0  0  0  0  0  0  0
  -26.9800   65.7850   24.5620 C   0  0  0  0  0  0  0  0  0  0  0  0
  -26.1940   65.2340   25.5860 C   0  0  0  0  0  0  0  0  0  0  0  0
  -22.9190   64.7310   27.4500 C   0  0  0  0  0  0  0  0  0  0  0  0
  -21.9830   63.7390   27.0230 N   0  0  0  0  0  0  0  0  0  0  0  0
  -21.0120   63.7410   27.4060 H   0  0  0  0  0  0  0  0  0  0  0  0
  -22.2350   63.0010   26.3310 H   0  0  0  0  0  0  0  0  0  0  0  0
  -22.5400   65.5920   28.2900 O   0  0  0  0  0  0  0  0  0  0  0  0
  1  2  1  0  0  0  0
  2  3  2  0  0  0  0
  3 13  1  0  0  0  0
  3  4  1  0  0  0  0
  4  6  2  0  0  0  0
  5  4  2  0  0  0  0
  7  4  1  0  0  0  0
  8  7  1  0  0  0  0
  9  8  2  0  0  0  0
 10 11  2  0  0  0  0
 10  9  1  0  0  0  0
 11 12  1  0  0  0  0
 12  2  1  0  0  0  0
 12  7  2  0  0  0  0
 13 17  2  0  0  0  0
 14 15  1  0  0  0  0
 14 13  1  0  0  0  0
 16 14  1  0  0  0  0
M  END
>  <REMARK>
 VINA RESULT:      -7.2      3.674      4.459
  1 active torsions:
  status: ('A' for Active; 'I' for Inactive)
    1  A    between atoms: C3_3  and  C4_4 
       I    between atoms: C4_4  and  N1_5 

>  <TORSDO>
F 1

$$$$
../pdbqt/decoy.vina_out.60.pdbqt
 OpenBabel06052021513D

 17 18  0  0  0  0  0  0  0  0999 V2000
  -25.1190   67.0030   23.7290 C   0  0  0  0  0  0  0  0  0  0  0  0
  -24.9520   66.0170   24.8540 C   0  0  0  0  0  0  0  0  0  0  0  0
  -23.7550   65.6540   25.3750 C   0  0  0  0  0  0  0  0  0  0  0  0
  -23.9470   64.4840   26.6720 S   0  0  0  0  0  0  0  0  0  0  0  0
  -23.3370   63.1510   26.3440 O   0  0  0  0  0  0  0  0  0  0  0  0
  -23.4940   65.0150   28.0030 O   0  0  0  0  0  0  0  0  0  0  0  0
  -25.6670   64.4730   26.5220 C   0  0  0  0  0  0  0  0  0  0  0  0
  -26.5650   63.7230   27.2790 C   0  0  0  0  0  0  0  0  0  0  0  0
  -27.9350   63.8470   27.0100 C   0  0  0  0  0  0  0  0  0  0  0  0
  -28.3790   64.7120   25.9960 C   0  0  0  0  0  0  0  0  0  0  0  0
  -27.4570   65.4580   25.2440 C   0  0  0  0  0  0  0  0  0  0  0  0
  -26.0870   65.3290   25.5190 C   0  0  0  0  0  0  0  0  0  0  0  0
  -22.4190   66.1500   24.9440 C   0  0  0  0  0  0  0  0  0  0  0  0
  -22.0700   67.5300   25.0770 N   0  0  0  0  0  0  0  0  0  0  0  0
  -21.1280   67.8590   24.7700 H   0  0  0  0  0  0  0  0  0  0  0  0
  -22.7290   68.2330   25.4750 H   0  0  0  0  0  0  0  0  0  0  0  0
  -21.5690   65.3600   24.4530 O   0  0  0  0  0  0  0  0  0  0  0  0
  1  2  1  0  0  0  0
  2  3  2  0  0  0  0
  2 12  1  0  0  0  0
  3  4  1  0  0  0  0
  4  6  2  0  0  0  0
  5  4  2  0  0  0  0
  7  4  1  0  0  0  0
  7  8  2  0  0  0  0
  9  8  1  0  0  0  0
 10  9  2  0  0  0  0
 11 12  2  0  0  0  0
 11 10  1  0  0  0  0
 12  7  1  0  0  0  0
 13 14  1  0  0  0  0
 13  3  1  0  0  0  0
 14 16  1  0  0  0  0
 15 14  1  0  0  0  0
 17 13  2  0  0  0  0
M  END
>  <REMARK>
 VINA RESULT:      -7.2      3.415      3.993
  1 active torsions:
  status: ('A' for Active; 'I' for Inactive)
    1  A    between atoms: C3_3  and  C4_4 
       I    between atoms: C4_4  and  N1_5 

>  <TORSDO>
F 1

$$$$
../pdbqt/decoy.vina_out.60.pdbqt
 OpenBabel06052021513D

 17 18  0  0  0  0  0  0  0  0999 V2000
  -23.6000   66.5980   24.6610 C   0  0  0  0  0  0  0  0  0  0  0  0
  -23.3060   65.3020   25.3690 C   0  0  0  0  0  0  0  0  0  0  0  0
  -22.0970   64.6930   25.3660 C   0  0  0  0  0  0  0  0  0  0  0  0
  -22.1260   63.2010   26.2960 S   0  0  0  0  0  0  0  0  0  0  0  0
  -21.8800   61.9850   25.4480 O   0  0  0  0  0  0  0  0  0  0  0  0
  -21.2350   63.2540   27.5040 O   0  0  0  0  0  0  0  0  0  0  0  0
  -23.7940   63.3900   26.7030 C   0  0  0  0  0  0  0  0  0  0  0  0
  -24.5650   62.5260   27.4780 C   0  0  0  0  0  0  0  0  0  0  0  0
  -25.9110   62.8480   27.7020 C   0  0  0  0  0  0  0  0  0  0  0  0
  -26.4570   64.0190   27.1510 C   0  0  0  0  0  0  0  0  0  0  0  0
  -25.6620   64.8760   26.3720 C   0  0  0  0  0  0  0  0  0  0  0  0
  -24.3150   64.5470   26.1520 C   0  0  0  0  0  0  0  0  0  0  0  0
  -20.8670   65.1760   24.6810 C   0  0  0  0  0  0  0  0  0  0  0  0
  -20.2280   64.3870   23.6730 N   0  0  0  0  0  0  0  0  0  0  0  0
  -19.3670   64.7430   23.2040 H   0  0  0  0  0  0  0  0  0  0  0  0
  -20.5960   63.4560   23.3830 H   0  0  0  0  0  0  0  0  0  0  0  0
  -20.3630   66.2930   24.9780 O   0  0  0  0  0  0  0  0  0  0  0  0
  1  2  1  0  0  0  0
  2 12  1  0  0  0  0
  3  2  2  0  0  0  0
  3  4  1  0  0  0  0
  4  7  1  0  0  0  0
  4  6  2  0  0  0  0
  5  4  2  0  0  0  0
  7  8  2  0  0  0  0
  8  9  1  0  0  0  0
 10  9  2  0  0  0  0
 11 10  1  0  0  0  0
 12 11  2  0  0  0  0
 12  7  1  0  0  0  0
 13 17  2  0  0  0  0
 13  3  1  0  0  0  0
 14 13  1  0  0  0  0
 15 14  1  0  0  0  0
 16 14  1  0  0  0  0
M  END
>  <REMARK>
 VINA RESULT:      -6.4      4.412      5.031
  1 active torsions:
  status: ('A' for Active; 'I' for Inactive)
    1  A    between atoms: C3_3  and  C4_4 
       I    between atoms: C4_4  and  N1_5 

>  <TORSDO>
F 1

$$$$
../pdbqt/decoy.vina_out.60.pdbqt
 OpenBabel06052021513D

 17 18  0  0  0  0  0  0  0  0999 V2000
  -24.5680   62.2850   27.9690 C   0  0  0  0  0  0  0  0  0  0  0  0
  -24.7130   63.3740   26.9380 C   0  0  0  0  0  0  0  0  0  0  0  0
  -23.6860   63.8720   26.2100 C   0  0  0  0  0  0  0  0  0  0  0  0
  -24.2300   65.1300   25.1090 S   0  0  0  0  0  0  0  0  0  0  0  0
  -23.6410   66.4750   25.4290 O   0  0  0  0  0  0  0  0  0  0  0  0
  -24.0550   64.7520   23.6650 O   0  0  0  0  0  0  0  0  0  0  0  0
  -25.8710   64.9930   25.6290 C   0  0  0  0  0  0  0  0  0  0  0  0
  -26.9570   65.7310   25.1630 C   0  0  0  0  0  0  0  0  0  0  0  0
  -28.2230   65.4770   25.7080 C   0  0  0  0  0  0  0  0  0  0  0  0
  -28.3790   64.4970   26.7020 C   0  0  0  0  0  0  0  0  0  0  0  0
  -27.2710   63.7640   27.1580 C   0  0  0  0  0  0  0  0  0  0  0  0
  -26.0060   64.0240   26.6070 C   0  0  0  0  0  0  0  0  0  0  0  0
  -22.2620   63.4490   26.2890 C   0  0  0  0  0  0  0  0  0  0  0  0
  -21.2910   64.2560   26.9600 N   0  0  0  0  0  0  0  0  0  0  0  0
  -20.2960   63.9430   27.0060 H   0  0  0  0  0  0  0  0  0  0  0  0
  -21.5410   65.1610   27.4140 H   0  0  0  0  0  0  0  0  0  0  0  0
  -21.8830   62.3670   25.7640 O   0  0  0  0  0  0  0  0  0  0  0  0
  2  1  1  0  0  0  0
  3 13  1  0  0  0  0
  3  2  2  0  0  0  0
  4  5  2  0  0  0  0
  4  7  1  0  0  0  0
  4  3  1  0  0  0  0
  6  4  2  0  0  0  0
  7 12  1  0  0  0  0
  8  7  2  0  0  0  0
  8  9  1  0  0  0  0
  9 10  2  0  0  0  0
 10 11  1  0  0  0  0
 12  2  1  0  0  0  0
 12 11  2  0  0  0  0
 13 14  1  0  0  0  0
 14 15  1  0  0  0  0
 14 16  1  0  0  0  0
 17 13  2  0  0  0  0
M  END
>  <REMARK>
 VINA RESULT:      -6.4      3.532      4.617
  1 active torsions:
  status: ('A' for Active; 'I' for Inactive)
    1  A    between atoms: C3_3  and  C4_4 
       I    between atoms: C4_4  and  N1_5 

>  <TORSDO>
F 1

$$$$
