../pdbqt/decoy.vina_out.20.pdbqt
 OpenBabel06052021513D

 17 19  0  0  1  0  0  0  0  0999 V2000
  -25.2760   65.8720   23.8610 N   0  0  0  0  0  0  0  0  0  0  0  0
  -24.5000   65.6330   24.8690 C   0  0  0  0  0  0  0  0  0  0  0  0
  -24.9340   65.1360   26.2320 C   0  0  0  0  0  0  0  0  0  0  0  0
  -23.5400   64.7650   26.8180 C   0  0  2  0  0  0  0  0  0  0  0  0
  -22.7710   66.0050   26.3390 C   0  0  0  0  0  0  0  0  0  0  0  0
  -22.9970   65.7430   24.8390 C   0  0  1  0  0  0  0  0  0  0  0  0
  -22.3000   64.3680   24.8030 C   0  0  2  0  0  0  0  0  0  0  0  0
  -22.0610   63.2720   23.8350 C   0  0  0  0  0  0  0  0  0  0  0  0
  -21.7710   62.1850   24.5880 C   0  0  0  0  0  0  0  0  0  0  0  0
  -22.0520   62.4350   26.0750 C   0  0  0  0  0  0  0  0  0  0  0  0
  -22.9990   63.6090   25.9090 C   0  0  1  0  0  0  0  0  0  0  0  0
  -26.6650   65.7160   23.9580 N   0  0  0  0  0  0  0  0  0  0  0  0
  -27.5430   66.4490   23.1060 C   0  0  0  0  0  0  0  0  0  0  0  0
  -28.6400   66.9430   23.5790 N   0  0  0  0  0  0  0  0  0  0  0  0
  -28.9030   66.8180   24.5830 H   0  0  0  0  0  0  0  0  0  0  0  0
  -27.2190   66.6320   21.7640 O   0  0  0  0  0  0  0  0  0  0  0  0
  -26.2710   66.5030   21.4320 H   0  0  0  0  0  0  0  0  0  0  0  0
  1 12  1  0  0  0  0
  1  2  2  0  0  0  0
  2  3  1  0  0  0  0
  4  3  1  6  0  0  0
  5  4  1  0  0  0  0
  6  2  1  0  0  0  0
  6  5  1  1  0  0  0
  7  8  1  6  0  0  0
  7  6  1  0  0  0  0
  7 11  1  0  0  0  0
  8  9  1  0  0  0  0
  9 10  1  0  0  0  0
 11 10  1  1  0  0  0
 11  4  1  0  0  0  0
 13 14  1  0  0  0  0
 13 12  2  0  0  0  0
 14 15  1  0  0  0  0
 16 13  1  0  0  0  0
 17 16  1  0  0  0  0
M  END
>  <MODEL>
1

>  <REMARK>
 VINA RESULT:      -6.9      0.000      0.000
  3 active torsions:
  status: ('A' for Active; 'I' for Inactive)
    1  A    between atoms: C1_3  and  N2_4 
    2  A    between atoms: C1_3  and  O1_16 
    3  A    between atoms: N2_4  and  N3_5 

>  <TORSDO>
F 3

$$$$
../pdbqt/decoy.vina_out.20.pdbqt
 OpenBabel06052021513D

 17 19  0  0  1  0  0  0  0  0999 V2000
  -21.8770   62.7020   24.5860 N   0  0  0  0  0  0  0  0  0  0  0  0
  -22.5490   63.6640   25.1330 C   0  0  0  0  0  0  0  0  0  0  0  0
  -23.4940   64.6100   24.4230 C   0  0  0  0  0  0  0  0  0  0  0  0
  -24.1760   65.2600   25.6620 C   0  0  2  0  0  0  0  0  0  0  0  0
  -22.9150   65.4650   26.5150 C   0  0  0  0  0  0  0  0  0  0  0  0
  -22.5600   63.9700   26.6090 C   0  0  1  0  0  0  0  0  0  0  0  0
  -23.8680   63.5310   27.2980 C   0  0  2  0  0  0  0  0  0  0  0  0
  -24.5230   62.2770   27.7340 C   0  0  0  0  0  0  0  0  0  0  0  0
  -25.8360   62.5810   27.8600 C   0  0  0  0  0  0  0  0  0  0  0  0
  -26.1550   63.9610   27.2730 C   0  0  0  0  0  0  0  0  0  0  0  0
  -24.9340   64.0920   26.3820 C   0  0  1  0  0  0  0  0  0  0  0  0
  -21.9430   62.4600   23.2080 N   0  0  0  0  0  0  0  0  0  0  0  0
  -20.7680   62.1350   22.4680 C   0  0  0  0  0  0  0  0  0  0  0  0
  -20.4690   62.8050   21.4020 N   0  0  0  0  0  0  0  0  0  0  0  0
  -21.0740   63.5880   21.0660 H   0  0  0  0  0  0  0  0  0  0  0  0
  -19.9420   61.0970   22.8900 O   0  0  0  0  0  0  0  0  0  0  0  0
  -20.0280   60.7050   23.8210 H   0  0  0  0  0  0  0  0  0  0  0  0
  1  2  2  0  0  0  0
  2  6  1  0  0  0  0
  3  2  1  0  0  0  0
  4  3  1  6  0  0  0
  4 11  1  0  0  0  0
  4  5  1  0  0  0  0
  6  5  1  6  0  0  0
  6  7  1  0  0  0  0
  7  8  1  6  0  0  0
  8  9  1  0  0  0  0
 10  9  1  0  0  0  0
 11 10  1  1  0  0  0
 11  7  1  0  0  0  0
 12  1  1  0  0  0  0
 13 16  1  0  0  0  0
 13 12  2  0  0  0  0
 14 13  1  0  0  0  0
 15 14  1  0  0  0  0
 16 17  1  0  0  0  0
M  END
>  <REMARK>
 VINA RESULT:      -6.8      3.979      5.164
  3 active torsions:
  status: ('A' for Active; 'I' for Inactive)
    1  A    between atoms: C1_3  and  N2_4 
    2  A    between atoms: C1_3  and  O1_16 
    3  A    between atoms: N2_4  and  N3_5 

>  <TORSDO>
F 3

$$$$
../pdbqt/decoy.vina_out.20.pdbqt
 OpenBabel06052021513D

 17 19  0  0  1  0  0  0  0  0999 V2000
  -21.5530   67.3960   25.4200 N   0  0  0  0  0  0  0  0  0  0  0  0
  -22.1580   66.2940   25.7310 C   0  0  0  0  0  0  0  0  0  0  0  0
  -22.4710   65.8100   27.1310 C   0  0  0  0  0  0  0  0  0  0  0  0
  -23.4490   64.6510   26.7830 C   0  0  2  0  0  0  0  0  0  0  0  0
  -22.6620   64.0540   25.6080 C   0  0  0  0  0  0  0  0  0  0  0  0
  -22.7280   65.3180   24.7320 C   0  0  1  0  0  0  0  0  0  0  0  0
  -24.2660   65.3840   24.6490 C   0  0  2  0  0  0  0  0  0  0  0  0
  -25.3090   66.2800   24.0990 C   0  0  0  0  0  0  0  0  0  0  0  0
  -26.4440   65.9620   24.7650 C   0  0  0  0  0  0  0  0  0  0  0  0
  -26.1620   65.0340   25.9520 C   0  0  0  0  0  0  0  0  0  0  0  0
  -24.6830   65.3370   26.1020 C   0  0  1  0  0  0  0  0  0  0  0  0
  -21.0780   68.2680   26.4070 N   0  0  0  0  0  0  0  0  0  0  0  0
  -19.9560   69.1130   26.1560 C   0  0  0  0  0  0  0  0  0  0  0  0
  -19.9480   70.3260   26.6040 N   0  0  0  0  0  0  0  0  0  0  0  0
  -20.7510   70.7090   27.1520 H   0  0  0  0  0  0  0  0  0  0  0  0
  -18.8710   68.6320   25.4290 O   0  0  0  0  0  0  0  0  0  0  0  0
  -18.8890   68.6070   24.4160 H   0  0  0  0  0  0  0  0  0  0  0  0
  1  2  2  0  0  0  0
  1 12  1  0  0  0  0
  2  3  1  0  0  0  0
  4  5  1  6  0  0  0
  4  3  1  0  0  0  0
  6  5  1  1  0  0  0
  6  2  1  0  0  0  0
  7  8  1  1  0  0  0
  7  6  1  0  0  0  0
  7 11  1  0  0  0  0
  8  9  1  0  0  0  0
  9 10  1  0  0  0  0
 11 10  1  6  0  0  0
 11  4  1  0  0  0  0
 13 12  2  0  0  0  0
 13 14  1  0  0  0  0
 14 15  1  0  0  0  0
 16 13  1  0  0  0  0
 17 16  1  0  0  0  0
M  END
>  <REMARK>
 VINA RESULT:      -6.8      3.818      5.345
  3 active torsions:
  status: ('A' for Active; 'I' for Inactive)
    1  A    between atoms: C1_3  and  N2_4 
    2  A    between atoms: C1_3  and  O1_16 
    3  A    between atoms: N2_4  and  N3_5 

>  <TORSDO>
F 3

$$$$
../pdbqt/decoy.vina_out.20.pdbqt
 OpenBabel06052021513D

 17 19  0  0  1  0  0  0  0  0999 V2000
  -24.8190   65.4340   23.9270 N   0  0  0  0  0  0  0  0  0  0  0  0
  -23.8570   65.2480   24.7730 C   0  0  0  0  0  0  0  0  0  0  0  0
  -23.1260   66.3270   25.5450 C   0  0  0  0  0  0  0  0  0  0  0  0
  -22.3680   65.4310   26.5680 C   0  0  2  0  0  0  0  0  0  0  0  0
  -21.9140   64.3330   25.5940 C   0  0  0  0  0  0  0  0  0  0  0  0
  -23.3360   63.8980   25.1950 C   0  0  1  0  0  0  0  0  0  0  0  0
  -23.7940   63.5010   26.6130 C   0  0  2  0  0  0  0  0  0  0  0  0
  -25.0270   63.0390   27.2900 C   0  0  0  0  0  0  0  0  0  0  0  0
  -24.8370   63.3050   28.6040 C   0  0  0  0  0  0  0  0  0  0  0  0
  -23.5990   64.1800   28.8310 C   0  0  0  0  0  0  0  0  0  0  0  0
  -23.4840   64.7400   27.4250 C   0  0  1  0  0  0  0  0  0  0  0  0
  -25.2700   66.7210   23.6080 N   0  0  0  0  0  0  0  0  0  0  0  0
  -26.5420   66.9180   22.9930 C   0  0  0  0  0  0  0  0  0  0  0  0
  -26.6820   66.7190   21.7220 N   0  0  0  0  0  0  0  0  0  0  0  0
  -25.8790   66.4150   21.1280 H   0  0  0  0  0  0  0  0  0  0  0  0
  -27.6320   67.3240   23.7580 O   0  0  0  0  0  0  0  0  0  0  0  0
  -27.5900   68.1640   24.3230 H   0  0  0  0  0  0  0  0  0  0  0  0
  1  2  2  0  0  0  0
  2  6  1  0  0  0  0
  2  3  1  0  0  0  0
  4  3  1  6  0  0  0
  4 11  1  0  0  0  0
  5  4  1  0  0  0  0
  6  5  1  1  0  0  0
  6  7  1  0  0  0  0
  7  8  1  6  0  0  0
  7 11  1  0  0  0  0
  8  9  1  0  0  0  0
  9 10  1  0  0  0  0
 11 10  1  1  0  0  0
 12  1  1  0  0  0  0
 13 12  2  0  0  0  0
 13 16  1  0  0  0  0
 14 13  1  0  0  0  0
 15 14  1  0  0  0  0
 16 17  1  0  0  0  0
M  END
>  <REMARK>
 VINA RESULT:      -6.5      1.574      2.616
  3 active torsions:
  status: ('A' for Active; 'I' for Inactive)
    1  A    between atoms: C1_3  and  N2_4 
    2  A    between atoms: C1_3  and  O1_16 
    3  A    between atoms: N2_4  and  N3_5 

>  <TORSDO>
F 3

$$$$
../pdbqt/decoy.vina_out.20.pdbqt
 OpenBabel06052021513D

 17 19  0  0  1  0  0  0  0  0999 V2000
  -26.2640   64.3400   28.9850 N   0  0  0  0  0  0  0  0  0  0  0  0
  -25.1910   63.7860   28.5180 C   0  0  0  0  0  0  0  0  0  0  0  0
  -25.0780   62.3790   27.9700 C   0  0  0  0  0  0  0  0  0  0  0  0
  -23.6720   62.4810   27.3090 C   0  0  2  0  0  0  0  0  0  0  0  0
  -22.9590   63.2380   28.4400 C   0  0  0  0  0  0  0  0  0  0  0  0
  -23.8620   64.4830   28.3700 C   0  0  1  0  0  0  0  0  0  0  0  0
  -23.5380   64.8430   26.9060 C   0  0  2  0  0  0  0  0  0  0  0  0
  -23.9660   65.8280   25.8870 C   0  0  0  0  0  0  0  0  0  0  0  0
  -23.5990   65.2970   24.6970 C   0  0  0  0  0  0  0  0  0  0  0  0
  -23.1500   63.8380   24.8430 C   0  0  0  0  0  0  0  0  0  0  0  0
  -23.8210   63.5500   26.1730 C   0  0  1  0  0  0  0  0  0  0  0  0
  -27.4730   63.6350   29.0610 N   0  0  0  0  0  0  0  0  0  0  0  0
  -28.5710   63.9780   28.2190 C   0  0  0  0  0  0  0  0  0  0  0  0
  -29.5550   64.6730   28.6900 N   0  0  0  0  0  0  0  0  0  0  0  0
  -29.5660   64.9930   29.6850 H   0  0  0  0  0  0  0  0  0  0  0  0
  -28.5860   63.5650   26.8890 O   0  0  0  0  0  0  0  0  0  0  0  0
  -28.1360   62.7020   26.6040 H   0  0  0  0  0  0  0  0  0  0  0  0
  1 12  1  0  0  0  0
  2  1  2  0  0  0  0
  3  2  1  0  0  0  0
  4  3  1  1  0  0  0
  4  5  1  0  0  0  0
  6  5  1  6  0  0  0
  6  2  1  0  0  0  0
  7  8  1  6  0  0  0
  7  6  1  0  0  0  0
  9 10  1  0  0  0  0
  9  8  1  0  0  0  0
 11 10  1  6  0  0  0
 11  7  1  0  0  0  0
 11  4  1  0  0  0  0
 13 14  1  0  0  0  0
 13 12  2  0  0  0  0
 14 15  1  0  0  0  0
 16 13  1  0  0  0  0
 17 16  1  0  0  0  0
M  END
>  <REMARK>
 VINA RESULT:      -6.3      3.440      4.186
  3 active torsions:
  status: ('A' for Active; 'I' for Inactive)
    1  A    between atoms: C1_3  and  N2_4 
    2  A    between atoms: C1_3  and  O1_16 
    3  A    between atoms: N2_4  and  N3_5 

>  <TORSDO>
F 3

$$$$
../pdbqt/decoy.vina_out.20.pdbqt
 OpenBabel06052021513D

 17 19  0  0  1  0  0  0  0  0999 V2000
  -27.5360   64.3280   26.2710 N   0  0  0  0  0  0  0  0  0  0  0  0
  -26.4160   63.9870   26.8260 C   0  0  0  0  0  0  0  0  0  0  0  0
  -25.1120   64.7530   26.7480 C   0  0  0  0  0  0  0  0  0  0  0  0
  -24.3150   64.0020   27.8540 C   0  0  2  0  0  0  0  0  0  0  0  0
  -24.7270   62.5700   27.4780 C   0  0  0  0  0  0  0  0  0  0  0  0
  -26.2330   62.7870   27.7190 C   0  0  1  0  0  0  0  0  0  0  0  0
  -26.1110   63.1660   29.2080 C   0  0  2  0  0  0  0  0  0  0  0  0
  -26.9880   63.6270   30.3090 C   0  0  0  0  0  0  0  0  0  0  0  0
  -26.1580   64.1870   31.2190 C   0  0  0  0  0  0  0  0  0  0  0  0
  -24.7390   64.3570   30.6630 C   0  0  0  0  0  0  0  0  0  0  0  0
  -25.0880   64.2810   29.1880 C   0  0  1  0  0  0  0  0  0  0  0  0
  -27.6360   65.4780   25.4790 N   0  0  0  0  0  0  0  0  0  0  0  0
  -28.3980   65.4700   24.2730 C   0  0  0  0  0  0  0  0  0  0  0  0
  -29.0630   64.4130   23.9360 N   0  0  0  0  0  0  0  0  0  0  0  0
  -29.0560   63.5540   24.5320 H   0  0  0  0  0  0  0  0  0  0  0  0
  -28.4270   66.5990   23.4590 O   0  0  0  0  0  0  0  0  0  0  0  0
  -28.9850   66.6200   22.6130 H   0  0  0  0  0  0  0  0  0  0  0  0
  1  2  2  0  0  0  0
  2  6  1  0  0  0  0
  3  2  1  0  0  0  0
  4  3  1  6  0  0  0
  4 11  1  0  0  0  0
  5  4  1  0  0  0  0
  6  5  1  6  0  0  0
  6  7  1  0  0  0  0
  7  8  1  6  0  0  0
  8  9  1  0  0  0  0
 10  9  1  0  0  0  0
 11  7  1  0  0  0  0
 11 10  1  1  0  0  0
 12  1  1  0  0  0  0
 13 12  2  0  0  0  0
 14 13  1  0  0  0  0
 14 15  1  0  0  0  0
 16 13  1  0  0  0  0
 17 16  1  0  0  0  0
M  END
>  <REMARK>
 VINA RESULT:      -6.2      3.015      4.505
  3 active torsions:
  status: ('A' for Active; 'I' for Inactive)
    1  A    between atoms: C1_3  and  N2_4 
    2  A    between atoms: C1_3  and  O1_16 
    3  A    between atoms: N2_4  and  N3_5 

>  <TORSDO>
F 3

$$$$
../pdbqt/decoy.vina_out.20.pdbqt
 OpenBabel06052021513D

 17 19  0  0  1  0  0  0  0  0999 V2000
  -24.7030   66.1240   25.1590 N   0  0  0  0  0  0  0  0  0  0  0  0
  -24.2400   65.0320   25.6770 C   0  0  0  0  0  0  0  0  0  0  0  0
  -23.4590   63.9580   24.9480 C   0  0  0  0  0  0  0  0  0  0  0  0
  -22.9530   63.1420   26.1720 C   0  0  2  0  0  0  0  0  0  0  0  0
  -24.2600   63.1370   26.9800 C   0  0  0  0  0  0  0  0  0  0  0  0
  -24.3370   64.6670   27.1370 C   0  0  1  0  0  0  0  0  0  0  0  0
  -22.9960   64.8260   27.8810 C   0  0  2  0  0  0  0  0  0  0  0  0
  -22.1370   65.9180   28.3950 C   0  0  0  0  0  0  0  0  0  0  0  0
  -20.9080   65.3700   28.5410 C   0  0  0  0  0  0  0  0  0  0  0  0
  -20.8280   63.9810   27.8970 C   0  0  0  0  0  0  0  0  0  0  0  0
  -22.0200   64.1170   26.9680 C   0  0  1  0  0  0  0  0  0  0  0  0
  -24.5450   66.4080   23.7970 N   0  0  0  0  0  0  0  0  0  0  0  0
  -25.5560   67.1100   23.0760 C   0  0  0  0  0  0  0  0  0  0  0  0
  -26.3230   66.4730   22.2520 N   0  0  0  0  0  0  0  0  0  0  0  0
  -26.2200   65.4440   22.0990 H   0  0  0  0  0  0  0  0  0  0  0  0
  -25.7180   68.4810   23.2580 O   0  0  0  0  0  0  0  0  0  0  0  0
  -26.6370   68.9070   23.2350 H   0  0  0  0  0  0  0  0  0  0  0  0
  1  2  2  0  0  0  0
  2  6  1  0  0  0  0
  3  2  1  0  0  0  0
  4  3  1  6  0  0  0
  4 11  1  0  0  0  0
  4  5  1  0  0  0  0
  6  5  1  6  0  0  0
  6  7  1  0  0  0  0
  7  8  1  6  0  0  0
  8  9  1  0  0  0  0
 10  9  1  0  0  0  0
 11  7  1  0  0  0  0
 11 10  1  1  0  0  0
 12  1  1  0  0  0  0
 13 16  1  0  0  0  0
 13 12  2  0  0  0  0
 14 13  1  0  0  0  0
 15 14  1  0  0  0  0
 17 16  1  0  0  0  0
M  END
>  <REMARK>
 VINA RESULT:      -6.2      1.811      2.938
  3 active torsions:
  status: ('A' for Active; 'I' for Inactive)
    1  A    between atoms: C1_3  and  N2_4 
    2  A    between atoms: C1_3  and  O1_16 
    3  A    between atoms: N2_4  and  N3_5 

>  <TORSDO>
F 3

$$$$
../pdbqt/decoy.vina_out.20.pdbqt
 OpenBabel06052021513D

 17 19  0  0  1  0  0  0  0  0999 V2000
  -22.8560   63.4320   23.5240 N   0  0  0  0  0  0  0  0  0  0  0  0
  -23.1440   63.7760   24.7380 C   0  0  0  0  0  0  0  0  0  0  0  0
  -22.7050   63.0590   25.9980 C   0  0  0  0  0  0  0  0  0  0  0  0
  -23.0970   64.1370   27.0490 C   0  0  2  0  0  0  0  0  0  0  0  0
  -24.4680   64.5140   26.4670 C   0  0  0  0  0  0  0  0  0  0  0  0
  -23.9190   65.0120   25.1180 C   0  0  1  0  0  0  0  0  0  0  0  0
  -23.0230   66.1220   25.7010 C   0  0  2  0  0  0  0  0  0  0  0  0
  -22.0290   67.1100   25.2220 C   0  0  0  0  0  0  0  0  0  0  0  0
  -21.3140   67.4600   26.3170 C   0  0  0  0  0  0  0  0  0  0  0  0
  -21.6190   66.5460   27.5090 C   0  0  0  0  0  0  0  0  0  0  0  0
  -22.1960   65.3800   26.7290 C   0  0  1  0  0  0  0  0  0  0  0  0
  -22.1010   62.2840   23.2520 N   0  0  0  0  0  0  0  0  0  0  0  0
  -20.7910   62.3860   22.6990 C   0  0  0  0  0  0  0  0  0  0  0  0
  -20.1330   63.4960   22.7950 N   0  0  0  0  0  0  0  0  0  0  0  0
  -20.5430   64.3300   23.2730 H   0  0  0  0  0  0  0  0  0  0  0  0
  -20.2180   61.2920   22.0560 O   0  0  0  0  0  0  0  0  0  0  0  0
  -19.9940   61.3240   21.0680 H   0  0  0  0  0  0  0  0  0  0  0  0
  1  2  2  0  0  0  0
  2  6  1  0  0  0  0
  2  3  1  0  0  0  0
  4  3  1  6  0  0  0
  5  4  1  0  0  0  0
  6  7  1  0  0  0  0
  6  5  1  1  0  0  0
  7  8  1  6  0  0  0
  7 11  1  0  0  0  0
  8  9  1  0  0  0  0
  9 10  1  0  0  0  0
 11  4  1  0  0  0  0
 11 10  1  1  0  0  0
 12  1  1  0  0  0  0
 13 14  1  0  0  0  0
 13 12  2  0  0  0  0
 14 15  1  0  0  0  0
 16 13  1  0  0  0  0
 17 16  1  0  0  0  0
M  END
>  <REMARK>
 VINA RESULT:      -6.1      3.522      4.949
  3 active torsions:
  status: ('A' for Active; 'I' for Inactive)
    1  A    between atoms: C1_3  and  N2_4 
    2  A    between atoms: C1_3  and  O1_16 
    3  A    between atoms: N2_4  and  N3_5 

>  <TORSDO>
F 3

$$$$
../pdbqt/decoy.vina_out.20.pdbqt
 OpenBabel06052021513D

 17 19  0  0  1  0  0  0  0  0999 V2000
  -20.5070   63.4480   25.6320 N   0  0  0  0  0  0  0  0  0  0  0  0
  -21.1640   64.5590   25.7400 C   0  0  0  0  0  0  0  0  0  0  0  0
  -21.4080   65.5640   24.6330 C   0  0  0  0  0  0  0  0  0  0  0  0
  -22.4890   66.4420   25.3280 C   0  0  2  0  0  0  0  0  0  0  0  0
  -21.8330   66.5320   26.7140 C   0  0  0  0  0  0  0  0  0  0  0  0
  -21.8730   65.0170   26.9890 C   0  0  1  0  0  0  0  0  0  0  0  0
  -23.4040   64.8700   26.8930 C   0  0  2  0  0  0  0  0  0  0  0  0
  -24.4180   63.7910   26.9290 C   0  0  0  0  0  0  0  0  0  0  0  0
  -25.5220   64.3150   26.3450 C   0  0  0  0  0  0  0  0  0  0  0  0
  -25.2210   65.6580   25.6700 C   0  0  0  0  0  0  0  0  0  0  0  0
  -23.7180   65.4950   25.5510 C   0  0  1  0  0  0  0  0  0  0  0  0
  -19.9010   63.0750   24.4260 N   0  0  0  0  0  0  0  0  0  0  0  0
  -20.3870   61.9610   23.6800 C   0  0  0  0  0  0  0  0  0  0  0  0
  -21.6520   61.8500   23.4320 N   0  0  0  0  0  0  0  0  0  0  0  0
  -22.3350   62.5650   23.7680 H   0  0  0  0  0  0  0  0  0  0  0  0
  -19.5000   60.9910   23.2190 O   0  0  0  0  0  0  0  0  0  0  0  0
  -18.5240   61.2090   23.0580 H   0  0  0  0  0  0  0  0  0  0  0  0
  1  2  2  0  0  0  0
  2  6  1  0  0  0  0
  3  2  1  0  0  0  0
  4  3  1  6  0  0  0
  4 11  1  0  0  0  0
  4  5  1  0  0  0  0
  6  5  1  6  0  0  0
  7  8  1  6  0  0  0
  7  6  1  0  0  0  0
  9  8  1  0  0  0  0
 10  9  1  0  0  0  0
 11 10  1  1  0  0  0
 11  7  1  0  0  0  0
 12  1  1  0  0  0  0
 13 12  2  0  0  0  0
 14 13  1  0  0  0  0
 14 15  1  0  0  0  0
 16 13  1  0  0  0  0
 17 16  1  0  0  0  0
M  END
>  <REMARK>
 VINA RESULT:      -6.1      4.262      5.382
  3 active torsions:
  status: ('A' for Active; 'I' for Inactive)
    1  A    between atoms: C1_3  and  N2_4 
    2  A    between atoms: C1_3  and  O1_16 
    3  A    between atoms: N2_4  and  N3_5 

>  <TORSDO>
F 3

$$$$
