../pdbqt/decoy.vina_out.34.pdbqt
 OpenBabel06052021513D

 22 23  0  0  0  0  0  0  0  0999 V2000
  -26.1910   65.9080   24.5790 C   0  0  0  0  0  0  0  0  0  0  0  0
  -26.3530   65.1470   25.7410 C   0  0  0  0  0  0  0  0  0  0  0  0
  -25.2540   64.8570   26.5560 C   0  0  0  0  0  0  0  0  0  0  0  0
  -23.9690   65.3290   26.2180 C   0  0  0  0  0  0  0  0  0  0  0  0
  -23.8160   66.0770   25.0390 C   0  0  0  0  0  0  0  0  0  0  0  0
  -24.9160   66.3650   24.2260 C   0  0  0  0  0  0  0  0  0  0  0  0
  -22.8040   65.0550   27.0260 N   0  0  0  0  0  0  0  0  0  0  0  0
  -22.6480   65.6860   27.8460 H   0  0  0  0  0  0  0  0  0  0  0  0
  -21.8650   63.9270   26.8390 C   0  0  0  0  0  0  0  0  0  0  0  0
  -20.6080   64.3740   26.0700 C   0  0  0  0  0  0  0  0  0  0  0  0
  -20.2030   63.2190   25.1550 C   0  0  0  0  0  0  0  0  0  0  0  0
  -21.3200   62.1830   25.2190 C   0  0  0  0  0  0  0  0  0  0  0  0
  -22.4840   62.8610   25.9220 C   0  0  0  0  0  0  0  0  0  0  0  0
  -21.5180   63.2940   28.1740 C   0  0  0  0  0  0  0  0  0  0  0  0
  -22.4240   63.0240   29.0060 O   0  0  0  0  0  0  0  0  0  0  0  0
  -20.2020   62.9620   28.4760 O   0  0  0  0  0  0  0  0  0  0  0  0
  -27.5740   66.2550   23.5460 S   0  0  0  0  0  0  0  0  0  0  0  0
  -28.3860   67.3720   24.1400 O   0  0  0  0  0  0  0  0  0  0  0  0
  -28.4440   65.0350   23.4350 O   0  0  0  0  0  0  0  0  0  0  0  0
  -27.0230   66.7160   21.9730 N   0  0  0  0  0  0  0  0  0  0  0  0
  -27.3210   65.9630   21.3130 H   0  0  0  0  0  0  0  0  0  0  0  0
  -25.9790   66.6990   22.0000 H   0  0  0  0  0  0  0  0  0  0  0  0
  1  2  1  0  0  0  0
  2  3  2  0  0  0  0
  4  3  1  0  0  0  0
  4  7  1  0  0  0  0
  5  4  2  0  0  0  0
  6  1  2  0  0  0  0
  6  5  1  0  0  0  0
  7  8  1  0  0  0  0
  9  7  1  0  0  0  0
  9 14  1  0  0  0  0
 10  9  1  0  0  0  0
 11 12  1  0  0  0  0
 11 10  1  0  0  0  0
 12 13  1  0  0  0  0
 13  9  1  0  0  0  0
 14 16  2  0  0  0  0
 14 15  1  0  0  0  0
 17 18  2  0  0  0  0
 17  1  1  0  0  0  0
 19 17  2  0  0  0  0
 20 22  1  0  0  0  0
 20 17  1  0  0  0  0
 21 20  1  0  0  0  0
M  END
>  <MODEL>
1

>  <REMARK>
 VINA RESULT:      -7.6      0.000      0.000
  5 active torsions:
  status: ('A' for Active; 'I' for Inactive)
    1  A    between atoms: N1_1  and  S1_2 
    2  A    between atoms: S1_2  and  C1_5 
    3  A    between atoms: C4_8  and  N2_9 
    4  A    between atoms: N2_9  and  C5_10 
    5  A    between atoms: C5_10  and  C6_11 

>  <TORSDO>
F 5

$$$$
../pdbqt/decoy.vina_out.34.pdbqt
 OpenBabel06052021513D

 22 23  0  0  0  0  0  0  0  0999 V2000
  -26.4700   66.1040   24.4010 C   0  0  0  0  0  0  0  0  0  0  0  0
  -26.3350   65.3040   25.5410 C   0  0  0  0  0  0  0  0  0  0  0  0
  -25.0830   65.1330   26.1410 C   0  0  0  0  0  0  0  0  0  0  0  0
  -23.9420   65.7640   25.6050 C   0  0  0  0  0  0  0  0  0  0  0  0
  -24.0860   66.5490   24.4490 C   0  0  0  0  0  0  0  0  0  0  0  0
  -25.3390   66.7190   23.8520 C   0  0  0  0  0  0  0  0  0  0  0  0
  -22.6280   65.6150   26.1870 N   0  0  0  0  0  0  0  0  0  0  0  0
  -22.4500   66.1420   27.0730 H   0  0  0  0  0  0  0  0  0  0  0  0
  -21.5510   64.7360   25.6820 C   0  0  0  0  0  0  0  0  0  0  0  0
  -22.1040   63.6880   24.6990 C   0  0  0  0  0  0  0  0  0  0  0  0
  -21.3280   62.3920   24.9370 C   0  0  0  0  0  0  0  0  0  0  0  0
  -20.4740   62.6020   26.1830 C   0  0  0  0  0  0  0  0  0  0  0  0
  -20.9730   63.8860   26.8240 C   0  0  0  0  0  0  0  0  0  0  0  0
  -20.4360   65.5600   25.0630 C   0  0  0  0  0  0  0  0  0  0  0  0
  -19.7530   66.3450   25.7740 O   0  0  0  0  0  0  0  0  0  0  0  0
  -20.1240   65.4260   23.7150 O   0  0  0  0  0  0  0  0  0  0  0  0
  -28.0450   66.3030   23.6390 S   0  0  0  0  0  0  0  0  0  0  0  0
  -27.8720   66.5280   22.1640 O   0  0  0  0  0  0  0  0  0  0  0  0
  -28.7470   67.4950   24.2290 O   0  0  0  0  0  0  0  0  0  0  0  0
  -28.9990   64.8850   23.8990 N   0  0  0  0  0  0  0  0  0  0  0  0
  -28.6780   64.4620   24.7990 H   0  0  0  0  0  0  0  0  0  0  0  0
  -28.7510   64.2090   23.1420 H   0  0  0  0  0  0  0  0  0  0  0  0
  1  2  1  0  0  0  0
  2  3  2  0  0  0  0
  4  3  1  0  0  0  0
  4  7  1  0  0  0  0
  5  4  2  0  0  0  0
  6  1  2  0  0  0  0
  6  5  1  0  0  0  0
  7  8  1  0  0  0  0
  9  7  1  0  0  0  0
  9 13  1  0  0  0  0
 10 11  1  0  0  0  0
 10  9  1  0  0  0  0
 11 12  1  0  0  0  0
 12 13  1  0  0  0  0
 14  9  1  0  0  0  0
 14 15  1  0  0  0  0
 16 14  2  0  0  0  0
 17 20  1  0  0  0  0
 17 19  2  0  0  0  0
 17  1  1  0  0  0  0
 18 17  2  0  0  0  0
 20 21  1  0  0  0  0
 22 20  1  0  0  0  0
M  END
>  <REMARK>
 VINA RESULT:      -7.6      1.982      2.450
  5 active torsions:
  status: ('A' for Active; 'I' for Inactive)
    1  A    between atoms: N1_1  and  S1_2 
    2  A    between atoms: S1_2  and  C1_5 
    3  A    between atoms: C4_8  and  N2_9 
    4  A    between atoms: N2_9  and  C5_10 
    5  A    between atoms: C5_10  and  C6_11 

>  <TORSDO>
F 5

$$$$
../pdbqt/decoy.vina_out.34.pdbqt
 OpenBabel06052021513D

 22 23  0  0  0  0  0  0  0  0999 V2000
  -26.4520   66.1030   24.4000 C   0  0  0  0  0  0  0  0  0  0  0  0
  -26.3280   65.3280   25.5580 C   0  0  0  0  0  0  0  0  0  0  0  0
  -25.0800   65.1610   26.1660 C   0  0  0  0  0  0  0  0  0  0  0  0
  -23.9310   65.7700   25.6210 C   0  0  0  0  0  0  0  0  0  0  0  0
  -24.0650   66.5300   24.4470 C   0  0  0  0  0  0  0  0  0  0  0  0
  -25.3140   66.6960   23.8410 C   0  0  0  0  0  0  0  0  0  0  0  0
  -22.6210   65.6240   26.2110 N   0  0  0  0  0  0  0  0  0  0  0  0
  -22.4200   66.2170   27.0480 H   0  0  0  0  0  0  0  0  0  0  0  0
  -21.5780   64.6670   25.7810 C   0  0  0  0  0  0  0  0  0  0  0  0
  -20.5470   64.4290   26.9000 C   0  0  0  0  0  0  0  0  0  0  0  0
  -19.1800   64.2810   26.2310 C   0  0  0  0  0  0  0  0  0  0  0  0
  -19.3600   64.6360   24.7590 C   0  0  0  0  0  0  0  0  0  0  0  0
  -20.7380   65.2660   24.6420 C   0  0  0  0  0  0  0  0  0  0  0  0
  -22.2070   63.3710   25.3040 C   0  0  0  0  0  0  0  0  0  0  0  0
  -22.5410   62.4810   26.1320 O   0  0  0  0  0  0  0  0  0  0  0  0
  -22.4650   63.1670   23.9530 O   0  0  0  0  0  0  0  0  0  0  0  0
  -28.0220   66.2970   23.6280 S   0  0  0  0  0  0  0  0  0  0  0  0
  -27.8410   66.5250   22.1540 O   0  0  0  0  0  0  0  0  0  0  0  0
  -28.7340   67.4840   24.2140 O   0  0  0  0  0  0  0  0  0  0  0  0
  -28.9720   64.8740   23.8780 N   0  0  0  0  0  0  0  0  0  0  0  0
  -29.0950   64.4220   22.9450 H   0  0  0  0  0  0  0  0  0  0  0  0
  -29.9190   65.1900   24.1870 H   0  0  0  0  0  0  0  0  0  0  0  0
  1  2  1  0  0  0  0
  2  3  2  0  0  0  0
  4  3  1  0  0  0  0
  4  7  1  0  0  0  0
  5  4  2  0  0  0  0
  6  1  2  0  0  0  0
  6  5  1  0  0  0  0
  7  8  1  0  0  0  0
  9  7  1  0  0  0  0
  9 10  1  0  0  0  0
 11 10  1  0  0  0  0
 12 11  1  0  0  0  0
 13 12  1  0  0  0  0
 13  9  1  0  0  0  0
 14  9  1  0  0  0  0
 14 15  1  0  0  0  0
 16 14  2  0  0  0  0
 17 20  1  0  0  0  0
 17 19  2  0  0  0  0
 17  1  1  0  0  0  0
 18 17  2  0  0  0  0
 20 22  1  0  0  0  0
 21 20  1  0  0  0  0
M  END
>  <REMARK>
 VINA RESULT:      -7.3      1.819      2.236
  5 active torsions:
  status: ('A' for Active; 'I' for Inactive)
    1  A    between atoms: N1_1  and  S1_2 
    2  A    between atoms: S1_2  and  C1_5 
    3  A    between atoms: C4_8  and  N2_9 
    4  A    between atoms: N2_9  and  C5_10 
    5  A    between atoms: C5_10  and  C6_11 

>  <TORSDO>
F 5

$$$$
../pdbqt/decoy.vina_out.34.pdbqt
 OpenBabel06052021513D

 22 23  0  0  0  0  0  0  0  0999 V2000
  -26.4040   65.9470   24.3810 C   0  0  0  0  0  0  0  0  0  0  0  0
  -26.3850   65.3360   25.6390 C   0  0  0  0  0  0  0  0  0  0  0  0
  -25.1730   65.1220   26.3030 C   0  0  0  0  0  0  0  0  0  0  0  0
  -23.9550   65.5190   25.7140 C   0  0  0  0  0  0  0  0  0  0  0  0
  -23.9850   66.1140   24.4410 C   0  0  0  0  0  0  0  0  0  0  0  0
  -25.1980   66.3270   23.7800 C   0  0  0  0  0  0  0  0  0  0  0  0
  -22.6780   65.3160   26.3590 N   0  0  0  0  0  0  0  0  0  0  0  0
  -22.5410   64.3970   26.8390 H   0  0  0  0  0  0  0  0  0  0  0  0
  -21.5370   66.2570   26.3360 C   0  0  0  0  0  0  0  0  0  0  0  0
  -21.1970   66.7520   27.7540 C   0  0  0  0  0  0  0  0  0  0  0  0
  -20.7840   68.2180   27.6340 C   0  0  0  0  0  0  0  0  0  0  0  0
  -21.0740   68.6510   26.2000 C   0  0  0  0  0  0  0  0  0  0  0  0
  -21.9180   67.5440   25.5890 C   0  0  0  0  0  0  0  0  0  0  0  0
  -20.3370   65.6240   25.6550 C   0  0  0  0  0  0  0  0  0  0  0  0
  -20.4260   65.2000   24.4710 O   0  0  0  0  0  0  0  0  0  0  0  0
  -19.1140   65.5450   26.3110 O   0  0  0  0  0  0  0  0  0  0  0  0
  -27.9300   66.1990   23.5410 S   0  0  0  0  0  0  0  0  0  0  0  0
  -27.6690   66.5610   22.1060 O   0  0  0  0  0  0  0  0  0  0  0  0
  -28.6880   67.3230   24.1900 O   0  0  0  0  0  0  0  0  0  0  0  0
  -28.8750   64.7530   23.6070 N   0  0  0  0  0  0  0  0  0  0  0  0
  -28.4570   64.1500   24.3510 H   0  0  0  0  0  0  0  0  0  0  0  0
  -28.7350   64.2550   22.7000 H   0  0  0  0  0  0  0  0  0  0  0  0
  1  2  1  0  0  0  0
  2  3  2  0  0  0  0
  4  3  1  0  0  0  0
  4  7  1  0  0  0  0
  5  4  2  0  0  0  0
  6  1  2  0  0  0  0
  6  5  1  0  0  0  0
  7  8  1  0  0  0  0
  9  7  1  0  0  0  0
  9 10  1  0  0  0  0
 11 10  1  0  0  0  0
 12 11  1  0  0  0  0
 13 12  1  0  0  0  0
 13  9  1  0  0  0  0
 14 16  1  0  0  0  0
 14  9  1  0  0  0  0
 15 14  2  0  0  0  0
 17 20  1  0  0  0  0
 17 19  2  0  0  0  0
 17  1  1  0  0  0  0
 18 17  2  0  0  0  0
 20 21  1  0  0  0  0
 22 20  1  0  0  0  0
M  END
>  <REMARK>
 VINA RESULT:      -6.9      2.342      3.157
  5 active torsions:
  status: ('A' for Active; 'I' for Inactive)
    1  A    between atoms: N1_1  and  S1_2 
    2  A    between atoms: S1_2  and  C1_5 
    3  A    between atoms: C4_8  and  N2_9 
    4  A    between atoms: N2_9  and  C5_10 
    5  A    between atoms: C5_10  and  C6_11 

>  <TORSDO>
F 5

$$$$
../pdbqt/decoy.vina_out.34.pdbqt
 OpenBabel06052021513D

 22 23  0  0  0  0  0  0  0  0999 V2000
  -25.8650   66.1220   24.5050 C   0  0  0  0  0  0  0  0  0  0  0  0
  -24.4820   65.9320   24.4170 C   0  0  0  0  0  0  0  0  0  0  0  0
  -23.8290   65.0680   25.3010 C   0  0  0  0  0  0  0  0  0  0  0  0
  -24.5550   64.3770   26.2920 C   0  0  0  0  0  0  0  0  0  0  0  0
  -25.9400   64.5900   26.3840 C   0  0  0  0  0  0  0  0  0  0  0  0
  -26.5910   65.4540   25.4980 C   0  0  0  0  0  0  0  0  0  0  0  0
  -23.9240   63.4770   27.2300 N   0  0  0  0  0  0  0  0  0  0  0  0
  -23.6030   62.5580   26.8470 H   0  0  0  0  0  0  0  0  0  0  0  0
  -23.6340   63.7680   28.6510 C   0  0  0  0  0  0  0  0  0  0  0  0
  -23.0280   65.1740   28.8170 C   0  0  0  0  0  0  0  0  0  0  0  0
  -21.9800   65.0860   29.9250 C   0  0  0  0  0  0  0  0  0  0  0  0
  -21.8130   63.6100   30.2700 C   0  0  0  0  0  0  0  0  0  0  0  0
  -22.5290   62.8380   29.1740 C   0  0  0  0  0  0  0  0  0  0  0  0
  -24.8800   63.5850   29.4980 C   0  0  0  0  0  0  0  0  0  0  0  0
  -25.4050   62.4460   29.6230 O   0  0  0  0  0  0  0  0  0  0  0  0
  -25.4310   64.6610   30.1850 O   0  0  0  0  0  0  0  0  0  0  0  0
  -26.6810   67.2240   23.4010 S   0  0  0  0  0  0  0  0  0  0  0  0
  -25.9540   68.5390   23.3620 O   0  0  0  0  0  0  0  0  0  0  0  0
  -28.0880   67.4660   23.8720 O   0  0  0  0  0  0  0  0  0  0  0  0
  -26.7150   66.5370   21.8140 N   0  0  0  0  0  0  0  0  0  0  0  0
  -25.7300   66.2900   21.5690 H   0  0  0  0  0  0  0  0  0  0  0  0
  -27.0080   67.2960   21.1600 H   0  0  0  0  0  0  0  0  0  0  0  0
  1  6  1  0  0  0  0
  2  1  2  0  0  0  0
  2  3  1  0  0  0  0
  3  4  2  0  0  0  0
  4  5  1  0  0  0  0
  4  7  1  0  0  0  0
  6  5  2  0  0  0  0
  7  9  1  0  0  0  0
  8  7  1  0  0  0  0
  9 10  1  0  0  0  0
  9 13  1  0  0  0  0
  9 14  1  0  0  0  0
 10 11  1  0  0  0  0
 11 12  1  0  0  0  0
 13 12  1  0  0  0  0
 14 15  2  0  0  0  0
 14 16  1  0  0  0  0
 17 19  2  0  0  0  0
 17  1  1  0  0  0  0
 18 17  2  0  0  0  0
 20 17  1  0  0  0  0
 21 20  1  0  0  0  0
 22 20  1  0  0  0  0
M  END
>  <REMARK>
 VINA RESULT:      -6.9      2.423      3.151
  5 active torsions:
  status: ('A' for Active; 'I' for Inactive)
    1  A    between atoms: N1_1  and  S1_2 
    2  A    between atoms: S1_2  and  C1_5 
    3  A    between atoms: C4_8  and  N2_9 
    4  A    between atoms: N2_9  and  C5_10 
    5  A    between atoms: C5_10  and  C6_11 

>  <TORSDO>
F 5

$$$$
../pdbqt/decoy.vina_out.34.pdbqt
 OpenBabel06052021513D

 22 23  0  0  0  0  0  0  0  0999 V2000
  -25.7780   66.0610   24.3690 C   0  0  0  0  0  0  0  0  0  0  0  0
  -24.4410   65.8150   24.0370 C   0  0  0  0  0  0  0  0  0  0  0  0
  -23.6650   64.9540   24.8190 C   0  0  0  0  0  0  0  0  0  0  0  0
  -24.2190   64.3220   25.9510 C   0  0  0  0  0  0  0  0  0  0  0  0
  -25.5560   64.5910   26.2860 C   0  0  0  0  0  0  0  0  0  0  0  0
  -26.3300   65.4520   25.5020 C   0  0  0  0  0  0  0  0  0  0  0  0
  -23.4570   63.4270   26.7910 N   0  0  0  0  0  0  0  0  0  0  0  0
  -23.5870   62.4040   26.6180 H   0  0  0  0  0  0  0  0  0  0  0  0
  -22.4660   63.8300   27.8130 C   0  0  0  0  0  0  0  0  0  0  0  0
  -22.7280   63.1150   29.1520 C   0  0  0  0  0  0  0  0  0  0  0  0
  -22.4120   64.1120   30.2660 C   0  0  0  0  0  0  0  0  0  0  0  0
  -22.1690   65.4640   29.6040 C   0  0  0  0  0  0  0  0  0  0  0  0
  -22.6320   65.3170   28.1640 C   0  0  0  0  0  0  0  0  0  0  0  0
  -21.0540   63.5930   27.3110 C   0  0  0  0  0  0  0  0  0  0  0  0
  -20.2650   62.8480   27.9520 O   0  0  0  0  0  0  0  0  0  0  0  0
  -20.6280   64.1560   26.1130 O   0  0  0  0  0  0  0  0  0  0  0  0
  -26.7460   67.1600   23.3920 S   0  0  0  0  0  0  0  0  0  0  0  0
  -26.0550   68.4890   23.2830 O   0  0  0  0  0  0  0  0  0  0  0  0
  -28.0870   67.3660   24.0390 O   0  0  0  0  0  0  0  0  0  0  0  0
  -26.9640   66.4920   21.8120 N   0  0  0  0  0  0  0  0  0  0  0  0
  -26.0230   66.1880   21.4770 H   0  0  0  0  0  0  0  0  0  0  0  0
  -27.2690   67.2740   21.1910 H   0  0  0  0  0  0  0  0  0  0  0  0
  1  6  1  0  0  0  0
  2  1  2  0  0  0  0
  2  3  1  0  0  0  0
  3  4  2  0  0  0  0
  4  5  1  0  0  0  0
  4  7  1  0  0  0  0
  6  5  2  0  0  0  0
  7  9  1  0  0  0  0
  8  7  1  0  0  0  0
  9 13  1  0  0  0  0
  9 10  1  0  0  0  0
 10 11  1  0  0  0  0
 12 11  1  0  0  0  0
 13 12  1  0  0  0  0
 14  9  1  0  0  0  0
 14 15  1  0  0  0  0
 16 14  2  0  0  0  0
 17 19  2  0  0  0  0
 17  1  1  0  0  0  0
 18 17  2  0  0  0  0
 20 17  1  0  0  0  0
 21 20  1  0  0  0  0
 22 20  1  0  0  0  0
M  END
>  <REMARK>
 VINA RESULT:      -6.8      1.547      2.789
  5 active torsions:
  status: ('A' for Active; 'I' for Inactive)
    1  A    between atoms: N1_1  and  S1_2 
    2  A    between atoms: S1_2  and  C1_5 
    3  A    between atoms: C4_8  and  N2_9 
    4  A    between atoms: N2_9  and  C5_10 
    5  A    between atoms: C5_10  and  C6_11 

>  <TORSDO>
F 5

$$$$
../pdbqt/decoy.vina_out.34.pdbqt
 OpenBabel06052021513D

 22 23  0  0  0  0  0  0  0  0999 V2000
  -25.6430   63.5670   27.2040 C   0  0  0  0  0  0  0  0  0  0  0  0
  -25.4250   64.6550   26.3520 C   0  0  0  0  0  0  0  0  0  0  0  0
  -24.1550   64.8900   25.8160 C   0  0  0  0  0  0  0  0  0  0  0  0
  -23.0790   64.0340   26.1260 C   0  0  0  0  0  0  0  0  0  0  0  0
  -23.3050   62.9560   26.9980 C   0  0  0  0  0  0  0  0  0  0  0  0
  -24.5760   62.7240   27.5320 C   0  0  0  0  0  0  0  0  0  0  0  0
  -21.7490   64.2370   25.5990 N   0  0  0  0  0  0  0  0  0  0  0  0
  -21.2410   65.0880   25.9350 H   0  0  0  0  0  0  0  0  0  0  0  0
  -21.0260   63.3190   24.6930 C   0  0  0  0  0  0  0  0  0  0  0  0
  -20.0530   64.0900   23.7820 C   0  0  0  0  0  0  0  0  0  0  0  0
  -20.0730   63.4030   22.4160 C   0  0  0  0  0  0  0  0  0  0  0  0
  -21.1950   62.3710   22.4490 C   0  0  0  0  0  0  0  0  0  0  0  0
  -22.0020   62.6650   23.7020 C   0  0  0  0  0  0  0  0  0  0  0  0
  -20.3210   62.2330   25.4850 C   0  0  0  0  0  0  0  0  0  0  0  0
  -20.3090   61.0440   25.0680 O   0  0  0  0  0  0  0  0  0  0  0  0
  -19.6390   62.5440   26.6570 O   0  0  0  0  0  0  0  0  0  0  0  0
  -27.2400   63.2850   27.8910 S   0  0  0  0  0  0  0  0  0  0  0  0
  -27.4610   64.2020   29.0610 O   0  0  0  0  0  0  0  0  0  0  0  0
  -27.3440   61.8630   28.3670 O   0  0  0  0  0  0  0  0  0  0  0  0
  -28.4480   63.5810   26.6900 N   0  0  0  0  0  0  0  0  0  0  0  0
  -27.9590   63.9740   25.8560 H   0  0  0  0  0  0  0  0  0  0  0  0
  -29.0680   64.3360   27.0610 H   0  0  0  0  0  0  0  0  0  0  0  0
  1  6  1  0  0  0  0
  1 17  1  0  0  0  0
  2  1  2  0  0  0  0
  3  4  2  0  0  0  0
  3  2  1  0  0  0  0
  4  5  1  0  0  0  0
  5  6  2  0  0  0  0
  7  8  1  0  0  0  0
  7  4  1  0  0  0  0
  9 14  1  0  0  0  0
  9  7  1  0  0  0  0
 10  9  1  0  0  0  0
 11 12  1  0  0  0  0
 11 10  1  0  0  0  0
 12 13  1  0  0  0  0
 13  9  1  0  0  0  0
 14 16  1  0  0  0  0
 15 14  2  0  0  0  0
 17 19  2  0  0  0  0
 17 18  2  0  0  0  0
 20 22  1  0  0  0  0
 20 17  1  0  0  0  0
 21 20  1  0  0  0  0
M  END
>  <REMARK>
 VINA RESULT:      -6.8      3.076      3.715
  5 active torsions:
  status: ('A' for Active; 'I' for Inactive)
    1  A    between atoms: N1_1  and  S1_2 
    2  A    between atoms: S1_2  and  C1_5 
    3  A    between atoms: C4_8  and  N2_9 
    4  A    between atoms: N2_9  and  C5_10 
    5  A    between atoms: C5_10  and  C6_11 

>  <TORSDO>
F 5

$$$$
../pdbqt/decoy.vina_out.34.pdbqt
 OpenBabel06052021513D

 22 23  0  0  0  0  0  0  0  0999 V2000
  -26.4310   64.2890   26.7040 C   0  0  0  0  0  0  0  0  0  0  0  0
  -25.9360   65.3310   25.9130 C   0  0  0  0  0  0  0  0  0  0  0  0
  -24.5580   65.5110   25.7600 C   0  0  0  0  0  0  0  0  0  0  0  0
  -23.6490   64.6450   26.4010 C   0  0  0  0  0  0  0  0  0  0  0  0
  -24.1570   63.6130   27.2080 C   0  0  0  0  0  0  0  0  0  0  0  0
  -25.5350   63.4360   27.3590 C   0  0  0  0  0  0  0  0  0  0  0  0
  -22.2170   64.7910   26.2760 N   0  0  0  0  0  0  0  0  0  0  0  0
  -21.7600   65.4640   26.9340 H   0  0  0  0  0  0  0  0  0  0  0  0
  -21.3440   64.0280   25.3580 C   0  0  0  0  0  0  0  0  0  0  0  0
  -22.1290   63.5310   24.1300 C   0  0  0  0  0  0  0  0  0  0  0  0
  -21.5870   62.1460   23.7780 C   0  0  0  0  0  0  0  0  0  0  0  0
  -20.6430   61.7340   24.9020 C   0  0  0  0  0  0  0  0  0  0  0  0
  -20.8670   62.7300   26.0280 C   0  0  0  0  0  0  0  0  0  0  0  0
  -20.1350   64.8550   24.9610 C   0  0  0  0  0  0  0  0  0  0  0  0
  -19.1530   64.9660   25.7440 O   0  0  0  0  0  0  0  0  0  0  0  0
  -20.0740   65.4620   23.7120 O   0  0  0  0  0  0  0  0  0  0  0  0
  -28.1670   64.0770   26.9070 S   0  0  0  0  0  0  0  0  0  0  0  0
  -28.7840   63.6520   25.6050 O   0  0  0  0  0  0  0  0  0  0  0  0
  -28.7910   65.3760   27.3350 O   0  0  0  0  0  0  0  0  0  0  0  0
  -28.4670   62.8700   28.1080 N   0  0  0  0  0  0  0  0  0  0  0  0
  -29.2610   63.2130   28.6930 H   0  0  0  0  0  0  0  0  0  0  0  0
  -27.6260   62.8400   28.7270 H   0  0  0  0  0  0  0  0  0  0  0  0
  1 17  1  0  0  0  0
  1  6  2  0  0  0  0
  2  1  1  0  0  0  0
  3  2  2  0  0  0  0
  3  4  1  0  0  0  0
  4  5  2  0  0  0  0
  5  6  1  0  0  0  0
  7  4  1  0  0  0  0
  7  8  1  0  0  0  0
  9 13  1  0  0  0  0
  9  7  1  0  0  0  0
 10  9  1  0  0  0  0
 11 10  1  0  0  0  0
 11 12  1  0  0  0  0
 12 13  1  0  0  0  0
 14  9  1  0  0  0  0
 14 15  1  0  0  0  0
 16 14  2  0  0  0  0
 17 19  2  0  0  0  0
 17 20  1  0  0  0  0
 18 17  2  0  0  0  0
 20 21  1  0  0  0  0
 20 22  1  0  0  0  0
M  END
>  <REMARK>
 VINA RESULT:      -6.7      2.753      3.473
  5 active torsions:
  status: ('A' for Active; 'I' for Inactive)
    1  A    between atoms: N1_1  and  S1_2 
    2  A    between atoms: S1_2  and  C1_5 
    3  A    between atoms: C4_8  and  N2_9 
    4  A    between atoms: N2_9  and  C5_10 
    5  A    between atoms: C5_10  and  C6_11 

>  <TORSDO>
F 5

$$$$
../pdbqt/decoy.vina_out.34.pdbqt
 OpenBabel06052021513D

 22 23  0  0  0  0  0  0  0  0999 V2000
  -15.2660   65.2400   20.7310 C   0  0  0  0  0  0  0  0  0  0  0  0
  -15.6120   66.0860   21.7900 C   0  0  0  0  0  0  0  0  0  0  0  0
  -16.9000   66.0470   22.3340 C   0  0  0  0  0  0  0  0  0  0  0  0
  -17.8650   65.1550   21.8230 C   0  0  0  0  0  0  0  0  0  0  0  0
  -17.5120   64.3250   20.7470 C   0  0  0  0  0  0  0  0  0  0  0  0
  -16.2240   64.3660   20.2050 C   0  0  0  0  0  0  0  0  0  0  0  0
  -19.2080   65.0810   22.3500 N   0  0  0  0  0  0  0  0  0  0  0  0
  -19.8560   65.8560   22.0810 H   0  0  0  0  0  0  0  0  0  0  0  0
  -19.7590   63.9780   23.1680 C   0  0  0  0  0  0  0  0  0  0  0  0
  -20.5030   62.9540   22.2910 C   0  0  0  0  0  0  0  0  0  0  0  0
  -21.7130   62.4700   23.0900 C   0  0  0  0  0  0  0  0  0  0  0  0
  -21.8070   63.3440   24.3360 C   0  0  0  0  0  0  0  0  0  0  0  0
  -20.8520   64.5040   24.1110 C   0  0  0  0  0  0  0  0  0  0  0  0
  -18.6630   63.3270   23.9930 C   0  0  0  0  0  0  0  0  0  0  0  0
  -18.2470   63.8760   25.0480 O   0  0  0  0  0  0  0  0  0  0  0  0
  -18.1370   62.0950   23.6200 O   0  0  0  0  0  0  0  0  0  0  0  0
  -13.6490   65.3040   20.0370 S   0  0  0  0  0  0  0  0  0  0  0  0
  -12.6660   64.6630   20.9760 O   0  0  0  0  0  0  0  0  0  0  0  0
  -13.2450   66.7360   19.8220 O   0  0  0  0  0  0  0  0  0  0  0  0
  -13.6330   64.4670   18.5240 N   0  0  0  0  0  0  0  0  0  0  0  0
  -12.6530   64.1390   18.3690 H   0  0  0  0  0  0  0  0  0  0  0  0
  -13.8350   65.1740   17.7830 H   0  0  0  0  0  0  0  0  0  0  0  0
  1  2  1  0  0  0  0
  2  3  2  0  0  0  0
  4  3  1  0  0  0  0
  4  7  1  0  0  0  0
  5  4  2  0  0  0  0
  6  1  2  0  0  0  0
  6  5  1  0  0  0  0
  7  9  1  0  0  0  0
  8  7  1  0  0  0  0
  9 14  1  0  0  0  0
  9 13  1  0  0  0  0
 10 11  1  0  0  0  0
 10  9  1  0  0  0  0
 11 12  1  0  0  0  0
 13 12  1  0  0  0  0
 14 15  1  0  0  0  0
 16 14  2  0  0  0  0
 17  1  1  0  0  0  0
 17 18  2  0  0  0  0
 19 17  2  0  0  0  0
 20 17  1  0  0  0  0
 21 20  1  0  0  0  0
 22 20  1  0  0  0  0
M  END
>  <REMARK>
 VINA RESULT:      -6.7      6.995      9.344
  5 active torsions:
  status: ('A' for Active; 'I' for Inactive)
    1  A    between atoms: N1_1  and  S1_2 
    2  A    between atoms: S1_2  and  C1_5 
    3  A    between atoms: C4_8  and  N2_9 
    4  A    between atoms: N2_9  and  C5_10 
    5  A    between atoms: C5_10  and  C6_11 

>  <TORSDO>
F 5

$$$$
