../pdbqt/decoy.vina_out.39.pdbqt
 OpenBabel06052021513D

 17 18  0  0  0  0  0  0  0  0999 V2000
  -20.0860   63.1220   23.0400 C   0  0  0  0  0  0  0  0  0  0  0  0
  -21.3950   62.5070   22.5630 C   0  0  0  0  0  0  0  0  0  0  0  0
  -22.2550   62.4560   23.6690 O   0  0  0  0  0  0  0  0  0  0  0  0
  -21.8140   63.4480   24.5780 C   0  0  0  0  0  0  0  0  0  0  0  0
  -21.7430   62.8380   25.9830 C   0  0  0  0  0  0  0  0  0  0  0  0
  -23.1640   62.9080   26.5330 C   0  0  0  0  0  0  0  0  0  0  0  0
  -23.9010   63.9700   25.7180 C   0  0  0  0  0  0  0  0  0  0  0  0
  -22.8970   64.5230   24.7140 C   0  0  0  0  0  0  0  0  0  0  0  0
  -20.5150   64.0040   24.1280 N   0  0  0  0  0  0  0  0  0  0  0  0
  -20.6490   64.9790   23.7700 H   0  0  0  0  0  0  0  0  0  0  0  0
  -19.8040   64.0520   24.8950 H   0  0  0  0  0  0  0  0  0  0  0  0
  -19.4010   63.9190   21.8940 C   0  0  0  0  0  0  0  0  0  0  0  0
  -19.6000   63.2950   20.6530 O   0  0  0  0  0  0  0  0  0  0  0  0
  -18.7080   63.0090   20.3280 H   0  0  0  0  0  0  0  0  0  0  0  0
  -19.1290   62.0170   23.5790 C   0  0  0  0  0  0  0  0  0  0  0  0
  -19.5570   60.7360   23.1860 O   0  0  0  0  0  0  0  0  0  0  0  0
  -20.3020   60.4770   23.7880 H   0  0  0  0  0  0  0  0  0  0  0  0
  1 15  1  0  0  0  0
  1  9  1  0  0  0  0
  2  1  1  0  0  0  0
  2  3  1  0  0  0  0
  3  4  1  0  0  0  0
  4  8  1  0  0  0  0
  4  5  1  0  0  0  0
  5  6  1  0  0  0  0
  7  6  1  0  0  0  0
  8  7  1  0  0  0  0
  9  4  1  0  0  0  0
  9 11  1  0  0  0  0
 10  9  1  0  0  0  0
 12  1  1  0  0  0  0
 13 12  1  0  0  0  0
 14 13  1  0  0  0  0
 16 15  1  0  0  0  0
 16 17  1  0  0  0  0
M  END
>  <MODEL>
1

>  <REMARK>
 VINA RESULT:      -5.3      0.000      0.000
  4 active torsions:
  status: ('A' for Active; 'I' for Inactive)
    1  A    between atoms: O1_1  and  C1_2 
    2  A    between atoms: C1_2  and  C2_3 
    3  A    between atoms: C2_3  and  C3_4 
    4  A    between atoms: C3_4  and  O2_5 

>  <TORSDO>
F 4

$$$$
../pdbqt/decoy.vina_out.39.pdbqt
 OpenBabel06052021513D

 17 18  0  0  0  0  0  0  0  0999 V2000
  -19.8600   63.0270   22.8760 C   0  0  0  0  0  0  0  0  0  0  0  0
  -20.1410   64.2660   23.7150 C   0  0  0  0  0  0  0  0  0  0  0  0
  -18.9640   65.0270   23.7380 O   0  0  0  0  0  0  0  0  0  0  0  0
  -18.2210   64.6680   22.5880 C   0  0  0  0  0  0  0  0  0  0  0  0
  -16.7670   64.4090   22.9980 C   0  0  0  0  0  0  0  0  0  0  0  0
  -16.1040   65.7810   23.0470 C   0  0  0  0  0  0  0  0  0  0  0  0
  -16.9670   66.7190   22.2060 C   0  0  0  0  0  0  0  0  0  0  0  0
  -18.1150   65.8810   21.6580 C   0  0  0  0  0  0  0  0  0  0  0  0
  -18.8480   63.4980   21.9270 N   0  0  0  0  0  0  0  0  0  0  0  0
  -19.3040   63.7950   21.0320 H   0  0  0  0  0  0  0  0  0  0  0  0
  -18.1580   62.7470   21.6860 H   0  0  0  0  0  0  0  0  0  0  0  0
  -21.1470   62.5480   22.1480 C   0  0  0  0  0  0  0  0  0  0  0  0
  -22.0930   62.0580   23.0620 O   0  0  0  0  0  0  0  0  0  0  0  0
  -22.6100   62.8400   23.3890 H   0  0  0  0  0  0  0  0  0  0  0  0
  -19.2830   61.8860   23.7650 C   0  0  0  0  0  0  0  0  0  0  0  0
  -19.5120   60.6240   23.1880 O   0  0  0  0  0  0  0  0  0  0  0  0
  -20.3250   60.2480   23.6150 H   0  0  0  0  0  0  0  0  0  0  0  0
  1  2  1  0  0  0  0
  1 15  1  0  0  0  0
  2  3  1  0  0  0  0
  4  5  1  0  0  0  0
  4  3  1  0  0  0  0
  5  6  1  0  0  0  0
  7  6  1  0  0  0  0
  8  7  1  0  0  0  0
  8  4  1  0  0  0  0
  9  4  1  0  0  0  0
  9  1  1  0  0  0  0
 10  9  1  0  0  0  0
 11  9  1  0  0  0  0
 12  1  1  0  0  0  0
 12 13  1  0  0  0  0
 13 14  1  0  0  0  0
 16 17  1  0  0  0  0
 16 15  1  0  0  0  0
M  END
>  <REMARK>
 VINA RESULT:      -5.2      2.534      4.615
  4 active torsions:
  status: ('A' for Active; 'I' for Inactive)
    1  A    between atoms: O1_1  and  C1_2 
    2  A    between atoms: C1_2  and  C2_3 
    3  A    between atoms: C2_3  and  C3_4 
    4  A    between atoms: C3_4  and  O2_5 

>  <TORSDO>
F 4

$$$$
../pdbqt/decoy.vina_out.39.pdbqt
 OpenBabel06052021513D

 17 18  0  0  0  0  0  0  0  0999 V2000
  -17.7330   63.7760   22.7090 C   0  0  0  0  0  0  0  0  0  0  0  0
  -18.2800   64.6310   23.8450 C   0  0  0  0  0  0  0  0  0  0  0  0
  -19.5950   64.2090   24.0840 O   0  0  0  0  0  0  0  0  0  0  0  0
  -19.6910   62.8760   23.6140 C   0  0  0  0  0  0  0  0  0  0  0  0
  -20.9600   62.7400   22.7660 C   0  0  0  0  0  0  0  0  0  0  0  0
  -22.0950   62.5130   23.7590 C   0  0  0  0  0  0  0  0  0  0  0  0
  -21.4560   62.0190   25.0550 C   0  0  0  0  0  0  0  0  0  0  0  0
  -19.9560   61.9430   24.7990 C   0  0  0  0  0  0  0  0  0  0  0  0
  -18.4610   62.5150   22.8700 N   0  0  0  0  0  0  0  0  0  0  0  0
  -17.8900   61.8380   23.4300 H   0  0  0  0  0  0  0  0  0  0  0  0
  -18.6620   62.0590   21.9480 H   0  0  0  0  0  0  0  0  0  0  0  0
  -16.2000   63.5740   22.8590 C   0  0  0  0  0  0  0  0  0  0  0  0
  -15.8020   62.3250   22.3580 O   0  0  0  0  0  0  0  0  0  0  0  0
  -15.2070   61.9170   23.0390 H   0  0  0  0  0  0  0  0  0  0  0  0
  -18.0630   64.4240   21.3320 C   0  0  0  0  0  0  0  0  0  0  0  0
  -17.2980   63.8500   20.3010 O   0  0  0  0  0  0  0  0  0  0  0  0
  -17.8190   63.9390   19.4620 H   0  0  0  0  0  0  0  0  0  0  0  0
  1 12  1  0  0  0  0
  1  9  1  0  0  0  0
  1  2  1  0  0  0  0
  2  3  1  0  0  0  0
  4  3  1  0  0  0  0
  4  8  1  0  0  0  0
  5  4  1  0  0  0  0
  5  6  1  0  0  0  0
  6  7  1  0  0  0  0
  8  7  1  0  0  0  0
  9 10  1  0  0  0  0
  9  4  1  0  0  0  0
 11  9  1  0  0  0  0
 13 12  1  0  0  0  0
 13 14  1  0  0  0  0
 15  1  1  0  0  0  0
 16 15  1  0  0  0  0
 17 16  1  0  0  0  0
M  END
>  <REMARK>
 VINA RESULT:      -4.9      2.326      3.466
  4 active torsions:
  status: ('A' for Active; 'I' for Inactive)
    1  A    between atoms: O1_1  and  C1_2 
    2  A    between atoms: C1_2  and  C2_3 
    3  A    between atoms: C2_3  and  C3_4 
    4  A    between atoms: C3_4  and  O2_5 

>  <TORSDO>
F 4

$$$$
../pdbqt/decoy.vina_out.39.pdbqt
 OpenBabel06052021513D

 17 18  0  0  0  0  0  0  0  0999 V2000
  -21.6700   65.3360   25.2950 C   0  0  0  0  0  0  0  0  0  0  0  0
  -22.3800   64.2920   24.4430 C   0  0  0  0  0  0  0  0  0  0  0  0
  -23.6280   64.0540   25.0350 O   0  0  0  0  0  0  0  0  0  0  0  0
  -23.9500   65.2060   25.7930 C   0  0  0  0  0  0  0  0  0  0  0  0
  -24.4280   64.7670   27.1820 C   0  0  0  0  0  0  0  0  0  0  0  0
  -25.9030   64.4160   27.0160 C   0  0  0  0  0  0  0  0  0  0  0  0
  -26.3820   65.1120   25.7430 C   0  0  0  0  0  0  0  0  0  0  0  0
  -25.1870   65.8770   25.1890 C   0  0  0  0  0  0  0  0  0  0  0  0
  -22.7800   66.1150   25.8490 N   0  0  0  0  0  0  0  0  0  0  0  0
  -22.9570   66.9620   25.2590 H   0  0  0  0  0  0  0  0  0  0  0  0
  -22.5730   66.4540   26.8190 H   0  0  0  0  0  0  0  0  0  0  0  0
  -20.7340   66.2170   24.4220 C   0  0  0  0  0  0  0  0  0  0  0  0
  -21.4150   67.3370   23.9190 O   0  0  0  0  0  0  0  0  0  0  0  0
  -21.6440   67.9080   24.6970 H   0  0  0  0  0  0  0  0  0  0  0  0
  -20.8620   64.6500   26.4360 C   0  0  0  0  0  0  0  0  0  0  0  0
  -21.0740   63.2590   26.4460 O   0  0  0  0  0  0  0  0  0  0  0  0
  -21.8120   63.0690   25.8100 H   0  0  0  0  0  0  0  0  0  0  0  0
  1  9  1  0  0  0  0
  1 15  1  0  0  0  0
  2  3  1  0  0  0  0
  2  1  1  0  0  0  0
  3  4  1  0  0  0  0
  4  9  1  0  0  0  0
  4  5  1  0  0  0  0
  6  5  1  0  0  0  0
  7  6  1  0  0  0  0
  8  7  1  0  0  0  0
  8  4  1  0  0  0  0
  9 11  1  0  0  0  0
 10  9  1  0  0  0  0
 12  1  1  0  0  0  0
 13 12  1  0  0  0  0
 13 14  1  0  0  0  0
 15 16  1  0  0  0  0
 17 16  1  0  0  0  0
M  END
>  <REMARK>
 VINA RESULT:      -4.9      3.131      3.578
  4 active torsions:
  status: ('A' for Active; 'I' for Inactive)
    1  A    between atoms: O1_1  and  C1_2 
    2  A    between atoms: C1_2  and  C2_3 
    3  A    between atoms: C2_3  and  C3_4 
    4  A    between atoms: C3_4  and  O2_5 

>  <TORSDO>
F 4

$$$$
../pdbqt/decoy.vina_out.39.pdbqt
 OpenBabel06052021513D

 17 18  0  0  0  0  0  0  0  0999 V2000
  -21.3030   65.6810   25.2750 C   0  0  0  0  0  0  0  0  0  0  0  0
  -21.3700   65.6250   26.7960 C   0  0  0  0  0  0  0  0  0  0  0  0
  -22.7000   65.3470   27.1410 O   0  0  0  0  0  0  0  0  0  0  0  0
  -23.2880   64.7030   26.0260 C   0  0  0  0  0  0  0  0  0  0  0  0
  -24.6450   65.3540   25.7360 C   0  0  0  0  0  0  0  0  0  0  0  0
  -25.6320   64.6900   26.6910 C   0  0  0  0  0  0  0  0  0  0  0  0
  -25.0000   63.3700   27.1300 C   0  0  0  0  0  0  0  0  0  0  0  0
  -23.6600   63.2680   26.4120 C   0  0  0  0  0  0  0  0  0  0  0  0
  -22.3650   64.7580   24.8670 N   0  0  0  0  0  0  0  0  0  0  0  0
  -21.9660   63.8080   24.6820 H   0  0  0  0  0  0  0  0  0  0  0  0
  -22.8370   65.0710   23.9850 H   0  0  0  0  0  0  0  0  0  0  0  0
  -19.9110   65.2110   24.7660 C   0  0  0  0  0  0  0  0  0  0  0  0
  -20.0040   64.6490   23.4840 O   0  0  0  0  0  0  0  0  0  0  0  0
  -20.9400   64.7770   23.1800 H   0  0  0  0  0  0  0  0  0  0  0  0
  -21.6080   67.1220   24.7690 C   0  0  0  0  0  0  0  0  0  0  0  0
  -20.7570   67.4810   23.7080 O   0  0  0  0  0  0  0  0  0  0  0  0
  -20.7810   68.4700   23.6330 H   0  0  0  0  0  0  0  0  0  0  0  0
  1  2  1  0  0  0  0
  2  3  1  0  0  0  0
  4  8  1  0  0  0  0
  4  3  1  0  0  0  0
  5  4  1  0  0  0  0
  5  6  1  0  0  0  0
  6  7  1  0  0  0  0
  8  7  1  0  0  0  0
  9  1  1  0  0  0  0
  9  4  1  0  0  0  0
 10  9  1  0  0  0  0
 11  9  1  0  0  0  0
 12  1  1  0  0  0  0
 13 12  1  0  0  0  0
 14 13  1  0  0  0  0
 15  1  1  0  0  0  0
 16 15  1  0  0  0  0
 17 16  1  0  0  0  0
M  END
>  <REMARK>
 VINA RESULT:      -4.8      2.797      3.975
  4 active torsions:
  status: ('A' for Active; 'I' for Inactive)
    1  A    between atoms: O1_1  and  C1_2 
    2  A    between atoms: C1_2  and  C2_3 
    3  A    between atoms: C2_3  and  C3_4 
    4  A    between atoms: C3_4  and  O2_5 

>  <TORSDO>
F 4

$$$$
../pdbqt/decoy.vina_out.39.pdbqt
 OpenBabel06052021513D

 17 18  0  0  0  0  0  0  0  0999 V2000
  -19.9650   67.2630   25.6910 C   0  0  0  0  0  0  0  0  0  0  0  0
  -20.4550   66.5810   26.9610 C   0  0  0  0  0  0  0  0  0  0  0  0
  -21.7760   66.1730   26.7290 O   0  0  0  0  0  0  0  0  0  0  0  0
  -21.9250   66.0440   25.3270 C   0  0  0  0  0  0  0  0  0  0  0  0
  -23.2200   66.7450   24.8990 C   0  0  0  0  0  0  0  0  0  0  0  0
  -24.3350   65.7360   25.1510 C   0  0  0  0  0  0  0  0  0  0  0  0
  -23.6780   64.3580   25.2160 C   0  0  0  0  0  0  0  0  0  0  0  0
  -22.1880   64.5750   24.9820 C   0  0  0  0  0  0  0  0  0  0  0  0
  -20.7270   66.5830   24.6400 N   0  0  0  0  0  0  0  0  0  0  0  0
  -20.1630   65.7980   24.2360 H   0  0  0  0  0  0  0  0  0  0  0  0
  -20.9650   67.2290   23.8510 H   0  0  0  0  0  0  0  0  0  0  0  0
  -18.4340   67.0580   25.5100 C   0  0  0  0  0  0  0  0  0  0  0  0
  -18.0500   67.2630   24.1750 O   0  0  0  0  0  0  0  0  0  0  0  0
  -18.2290   66.4160   23.6910 H   0  0  0  0  0  0  0  0  0  0  0  0
  -20.3100   68.7810   25.7190 C   0  0  0  0  0  0  0  0  0  0  0  0
  -19.1490   69.5700   25.6330 O   0  0  0  0  0  0  0  0  0  0  0  0
  -18.4140   69.0610   26.0640 H   0  0  0  0  0  0  0  0  0  0  0  0
  1 15  1  0  0  0  0
  1  2  1  0  0  0  0
  3  2  1  0  0  0  0
  4  3  1  0  0  0  0
  5  6  1  0  0  0  0
  5  4  1  0  0  0  0
  6  7  1  0  0  0  0
  8  7  1  0  0  0  0
  8  4  1  0  0  0  0
  9  4  1  0  0  0  0
  9  1  1  0  0  0  0
 10  9  1  0  0  0  0
 11  9  1  0  0  0  0
 12  1  1  0  0  0  0
 13 12  1  0  0  0  0
 14 13  1  0  0  0  0
 16 15  1  0  0  0  0
 16 17  1  0  0  0  0
M  END
>  <REMARK>
 VINA RESULT:      -4.8      4.118      4.961
  4 active torsions:
  status: ('A' for Active; 'I' for Inactive)
    1  A    between atoms: O1_1  and  C1_2 
    2  A    between atoms: C1_2  and  C2_3 
    3  A    between atoms: C2_3  and  C3_4 
    4  A    between atoms: C3_4  and  O2_5 

>  <TORSDO>
F 4

$$$$
../pdbqt/decoy.vina_out.39.pdbqt
 OpenBabel06052021513D

 17 18  0  0  0  0  0  0  0  0999 V2000
  -17.8530   64.8400   22.3520 C   0  0  0  0  0  0  0  0  0  0  0  0
  -17.6020   63.5110   23.0520 C   0  0  0  0  0  0  0  0  0  0  0  0
  -18.7880   63.1610   23.7140 O   0  0  0  0  0  0  0  0  0  0  0  0
  -19.8430   63.8300   23.0470 C   0  0  0  0  0  0  0  0  0  0  0  0
  -20.7430   64.5000   24.0900 C   0  0  0  0  0  0  0  0  0  0  0  0
  -21.6900   63.4080   24.5780 C   0  0  0  0  0  0  0  0  0  0  0  0
  -21.6940   62.3170   23.5080 C   0  0  0  0  0  0  0  0  0  0  0  0
  -20.7650   62.7930   22.3980 C   0  0  0  0  0  0  0  0  0  0  0  0
  -19.2890   64.7920   22.0640 N   0  0  0  0  0  0  0  0  0  0  0  0
  -19.4490   64.4400   21.0900 H   0  0  0  0  0  0  0  0  0  0  0  0
  -19.7320   65.7390   22.1260 H   0  0  0  0  0  0  0  0  0  0  0  0
  -17.0120   64.9450   21.0500 C   0  0  0  0  0  0  0  0  0  0  0  0
  -17.3210   63.9040   20.1610 O   0  0  0  0  0  0  0  0  0  0  0  0
  -18.0660   64.2240   19.5900 H   0  0  0  0  0  0  0  0  0  0  0  0
  -17.5280   66.0280   23.3060 C   0  0  0  0  0  0  0  0  0  0  0  0
  -17.2560   67.2030   22.5820 O   0  0  0  0  0  0  0  0  0  0  0  0
  -16.2960   67.1790   22.3320 H   0  0  0  0  0  0  0  0  0  0  0  0
  1  2  1  0  0  0  0
  1 15  1  0  0  0  0
  2  3  1  0  0  0  0
  4  3  1  0  0  0  0
  4  5  1  0  0  0  0
  5  6  1  0  0  0  0
  7  6  1  0  0  0  0
  8  4  1  0  0  0  0
  8  7  1  0  0  0  0
  9 11  1  0  0  0  0
  9  1  1  0  0  0  0
  9  4  1  0  0  0  0
 10  9  1  0  0  0  0
 12  1  1  0  0  0  0
 13 12  1  0  0  0  0
 14 13  1  0  0  0  0
 16 15  1  0  0  0  0
 17 16  1  0  0  0  0
M  END
>  <REMARK>
 VINA RESULT:      -4.8      2.380      3.593
  4 active torsions:
  status: ('A' for Active; 'I' for Inactive)
    1  A    between atoms: O1_1  and  C1_2 
    2  A    between atoms: C1_2  and  C2_3 
    3  A    between atoms: C2_3  and  C3_4 
    4  A    between atoms: C3_4  and  O2_5 

>  <TORSDO>
F 4

$$$$
../pdbqt/decoy.vina_out.39.pdbqt
 OpenBabel06052021513D

 17 18  0  0  0  0  0  0  0  0999 V2000
  -20.4980   62.7200   24.4220 C   0  0  0  0  0  0  0  0  0  0  0  0
  -20.2010   63.5550   25.6610 C   0  0  0  0  0  0  0  0  0  0  0  0
  -21.3770   64.2430   25.9880 O   0  0  0  0  0  0  0  0  0  0  0  0
  -22.4520   63.5060   25.4350 C   0  0  0  0  0  0  0  0  0  0  0  0
  -23.3880   64.4700   24.6970 C   0  0  0  0  0  0  0  0  0  0  0  0
  -24.2940   65.0630   25.7710 C   0  0  0  0  0  0  0  0  0  0  0  0
  -24.2450   64.1120   26.9650 C   0  0  0  0  0  0  0  0  0  0  0  0
  -23.3260   62.9630   26.5690 C   0  0  0  0  0  0  0  0  0  0  0  0
  -21.9280   62.4310   24.5580 N   0  0  0  0  0  0  0  0  0  0  0  0
  -22.0660   61.4990   25.0140 H   0  0  0  0  0  0  0  0  0  0  0  0
  -22.4090   62.3940   23.6280 H   0  0  0  0  0  0  0  0  0  0  0  0
  -19.6500   61.4180   24.4170 C   0  0  0  0  0  0  0  0  0  0  0  0
  -19.5200   60.9030   23.1180 O   0  0  0  0  0  0  0  0  0  0  0  0
  -19.8070   61.6190   22.4940 H   0  0  0  0  0  0  0  0  0  0  0  0
  -20.2290   63.5480   23.1300 C   0  0  0  0  0  0  0  0  0  0  0  0
  -19.8940   64.8780   23.4370 O   0  0  0  0  0  0  0  0  0  0  0  0
  -20.4940   65.1710   24.1710 H   0  0  0  0  0  0  0  0  0  0  0  0
  1  9  1  0  0  0  0
  1  2  1  0  0  0  0
  2  3  1  0  0  0  0
  4  3  1  0  0  0  0
  4  8  1  0  0  0  0
  5  4  1  0  0  0  0
  5  6  1  0  0  0  0
  6  7  1  0  0  0  0
  8  7  1  0  0  0  0
  9 10  1  0  0  0  0
  9  4  1  0  0  0  0
 11  9  1  0  0  0  0
 12  1  1  0  0  0  0
 13 12  1  0  0  0  0
 14 13  1  0  0  0  0
 15 16  1  0  0  0  0
 15  1  1  0  0  0  0
 16 17  1  0  0  0  0
M  END
>  <REMARK>
 VINA RESULT:      -4.8      1.655      2.722
  4 active torsions:
  status: ('A' for Active; 'I' for Inactive)
    1  A    between atoms: O1_1  and  C1_2 
    2  A    between atoms: C1_2  and  C2_3 
    3  A    between atoms: C2_3  and  C3_4 
    4  A    between atoms: C3_4  and  O2_5 

>  <TORSDO>
F 4

$$$$
../pdbqt/decoy.vina_out.39.pdbqt
 OpenBabel06052021513D

 17 18  0  0  0  0  0  0  0  0999 V2000
  -14.0370   65.1100   20.8270 C   0  0  0  0  0  0  0  0  0  0  0  0
  -14.7040   64.0360   19.9770 C   0  0  0  0  0  0  0  0  0  0  0  0
  -15.9050   63.6910   20.6130 O   0  0  0  0  0  0  0  0  0  0  0  0
  -16.2770   64.7980   21.4150 C   0  0  0  0  0  0  0  0  0  0  0  0
  -16.6620   64.2930   22.8100 C   0  0  0  0  0  0  0  0  0  0  0  0
  -18.1130   63.8360   22.6950 C   0  0  0  0  0  0  0  0  0  0  0  0
  -18.6960   64.5230   21.4620 C   0  0  0  0  0  0  0  0  0  0  0  0
  -17.5860   65.3880   20.8800 C   0  0  0  0  0  0  0  0  0  0  0  0
  -15.1770   65.7910   21.4470 N   0  0  0  0  0  0  0  0  0  0  0  0
  -15.4410   66.6350   20.8860 H   0  0  0  0  0  0  0  0  0  0  0  0
  -14.9540   66.1210   22.4160 H   0  0  0  0  0  0  0  0  0  0  0  0
  -13.2060   66.0790   19.9400 C   0  0  0  0  0  0  0  0  0  0  0  0
  -13.5170   67.4180   20.2240 O   0  0  0  0  0  0  0  0  0  0  0  0
  -12.7580   67.7840   20.7480 H   0  0  0  0  0  0  0  0  0  0  0  0
  -13.1330   64.4600   21.9150 C   0  0  0  0  0  0  0  0  0  0  0  0
  -13.2550   63.0590   21.9100 O   0  0  0  0  0  0  0  0  0  0  0  0
  -12.4200   62.6920   21.5190 H   0  0  0  0  0  0  0  0  0  0  0  0
  1  9  1  0  0  0  0
  1 15  1  0  0  0  0
  2  3  1  0  0  0  0
  2  1  1  0  0  0  0
  3  4  1  0  0  0  0
  4  9  1  0  0  0  0
  4  5  1  0  0  0  0
  6  5  1  0  0  0  0
  7  6  1  0  0  0  0
  8  4  1  0  0  0  0
  8  7  1  0  0  0  0
  9 11  1  0  0  0  0
 10  9  1  0  0  0  0
 12 13  1  0  0  0  0
 12  1  1  0  0  0  0
 13 14  1  0  0  0  0
 16 15  1  0  0  0  0
 17 16  1  0  0  0  0
M  END
>  <REMARK>
 VINA RESULT:      -4.7      4.972      6.751
  4 active torsions:
  status: ('A' for Active; 'I' for Inactive)
    1  A    between atoms: O1_1  and  C1_2 
    2  A    between atoms: C1_2  and  C2_3 
    3  A    between atoms: C2_3  and  C3_4 
    4  A    between atoms: C3_4  and  O2_5 

>  <TORSDO>
F 4

$$$$
