../pdbqt/lig.vina_out.5.pdbqt
 OpenBabel06052021513D

 22 24  0  0  1  0  0  0  0  0999 V2000
  -27.1620   66.1570   23.8640 C   0  0  0  0  0  0  0  0  0  0  0  0
  -28.5570   65.9770   23.7040 C   0  0  0  0  0  0  0  0  0  0  0  0
  -29.3010   65.2180   24.6360 C   0  0  0  0  0  0  0  0  0  0  0  0
  -28.6670   64.6270   25.7420 C   0  0  0  0  0  0  0  0  0  0  0  0
  -27.2970   64.8200   25.8800 C   0  0  0  0  0  0  0  0  0  0  0  0
  -26.5020   64.3400   26.8470 N   0  0  0  0  0  0  0  0  0  0  0  0
  -25.2820   64.8290   26.5000 C   0  0  0  0  0  0  0  0  0  0  0  0
  -25.2810   65.5600   25.3540 N   0  0  0  0  0  0  0  0  0  0  0  0
  -26.5720   65.5500   24.9860 C   0  0  0  0  0  0  0  0  0  0  0  0
  -24.0150   64.4840   27.2560 C   0  0  1  0  0  0  0  0  0  0  0  0
  -24.3520   64.4290   28.7630 C   0  0  0  0  0  0  0  0  0  0  0  0
  -23.4350   63.1440   26.7910 C   0  0  0  0  0  0  0  0  0  0  0  0
  -21.9400   63.2730   27.0160 C   0  0  0  0  0  0  0  0  0  0  0  0
  -21.6750   64.7690   27.1590 C   0  0  0  0  0  0  0  0  0  0  0  0
  -22.9520   65.4730   26.9990 N   0  0  0  0  0  0  0  0  0  0  0  0
  -23.0090   65.8240   26.0130 H   0  0  0  0  0  0  0  0  0  0  0  0
  -23.0080   66.2920   27.6500 H   0  0  0  0  0  0  0  0  0  0  0  0
  -26.3880   66.9510   22.8790 C   0  0  0  0  0  0  0  0  0  0  0  0
  -25.5060   67.8140   23.2750 N   0  0  0  0  0  0  0  0  0  0  0  0
  -24.9520   68.3820   22.5950 H   0  0  0  0  0  0  0  0  0  0  0  0
  -26.6130   66.7660   21.5150 O   0  0  0  0  0  0  0  0  0  0  0  0
  -27.4880   66.3950   21.1660 H   0  0  0  0  0  0  0  0  0  0  0  0
  1  9  1  0  0  0  0
  2  1  2  0  0  0  0
  2  3  1  0  0  0  0
  3  4  2  0  0  0  0
  4  5  1  0  0  0  0
  5  6  1  0  0  0  0
  7  6  2  0  0  0  0
  7 10  1  0  0  0  0
  8  7  1  0  0  0  0
  9  8  1  0  0  0  0
  9  5  2  0  0  0  0
 10 11  1  1  0  0  0
 12 13  1  0  0  0  0
 12 10  1  0  0  0  0
 13 14  1  0  0  0  0
 15 14  1  0  0  0  0
 15 10  1  0  0  0  0
 15 17  1  0  0  0  0
 16 15  1  0  0  0  0
 18 19  2  0  0  0  0
 18  1  1  0  0  0  0
 20 19  1  0  0  0  0
 21 18  1  0  0  0  0
 22 21  1  0  0  0  0
M  END
>  <MODEL>
1

>  <REMARK>
 VINA RESULT:      -8.4      0.000      0.000
  3 active torsions:
  status: ('A' for Active; 'I' for Inactive)
    1  A    between atoms: C1_3  and  O1_4 
    2  A    between atoms: C1_3  and  C2_6 
    3  A    between atoms: C7_12  and  C8_13 

>  <TORSDO>
F 3

$$$$
../pdbqt/lig.vina_out.5.pdbqt
 OpenBabel06052021513D

 22 24  0  0  1  0  0  0  0  0999 V2000
  -26.2290   66.2180   24.3270 C   0  0  0  0  0  0  0  0  0  0  0  0
  -27.3070   65.5260   24.9320 C   0  0  0  0  0  0  0  0  0  0  0  0
  -27.1030   64.7390   26.0870 C   0  0  0  0  0  0  0  0  0  0  0  0
  -25.8240   64.6270   26.6580 C   0  0  0  0  0  0  0  0  0  0  0  0
  -24.7830   65.3180   26.0490 C   0  0  0  0  0  0  0  0  0  0  0  0
  -23.4950   65.3400   26.4210 N   0  0  0  0  0  0  0  0  0  0  0  0
  -22.9310   66.1590   25.4940 C   0  0  0  0  0  0  0  0  0  0  0  0
  -23.8000   66.6170   24.5540 N   0  0  0  0  0  0  0  0  0  0  0  0
  -24.9690   66.0800   24.9340 C   0  0  0  0  0  0  0  0  0  0  0  0
  -21.4420   66.4340   25.4400 C   0  0  1  0  0  0  0  0  0  0  0  0
  -21.0850   67.3910   26.5990 C   0  0  0  0  0  0  0  0  0  0  0  0
  -20.6300   65.1380   25.5510 C   0  0  0  0  0  0  0  0  0  0  0  0
  -19.3530   65.4170   24.7810 C   0  0  0  0  0  0  0  0  0  0  0  0
  -19.6580   66.6320   23.9080 C   0  0  0  0  0  0  0  0  0  0  0  0
  -21.0530   67.0220   24.1450 N   0  0  0  0  0  0  0  0  0  0  0  0
  -21.6370   66.6240   23.3720 H   0  0  0  0  0  0  0  0  0  0  0  0
  -21.1520   68.0650   24.1370 H   0  0  0  0  0  0  0  0  0  0  0  0
  -26.4500   67.0400   23.1120 C   0  0  0  0  0  0  0  0  0  0  0  0
  -27.1850   66.5980   22.1400 N   0  0  0  0  0  0  0  0  0  0  0  0
  -27.3510   67.1640   21.2780 H   0  0  0  0  0  0  0  0  0  0  0  0
  -25.8600   68.3010   23.0160 O   0  0  0  0  0  0  0  0  0  0  0  0
  -25.2400   68.6540   23.7350 H   0  0  0  0  0  0  0  0  0  0  0  0
  1  2  2  0  0  0  0
  1  9  1  0  0  0  0
  2  3  1  0  0  0  0
  3  4  2  0  0  0  0
  5  6  1  0  0  0  0
  5  4  1  0  0  0  0
  7  6  2  0  0  0  0
  8  9  1  0  0  0  0
  8  7  1  0  0  0  0
  9  5  2  0  0  0  0
 10  7  1  0  0  0  0
 10 12  1  0  0  0  0
 10 11  1  1  0  0  0
 13 12  1  0  0  0  0
 14 15  1  0  0  0  0
 14 13  1  0  0  0  0
 15 10  1  0  0  0  0
 16 15  1  0  0  0  0
 17 15  1  0  0  0  0
 18  1  1  0  0  0  0
 19 18  2  0  0  0  0
 20 19  1  0  0  0  0
 21 18  1  0  0  0  0
 21 22  1  0  0  0  0
M  END
>  <REMARK>
 VINA RESULT:      -8.3      2.212      3.009
  3 active torsions:
  status: ('A' for Active; 'I' for Inactive)
    1  A    between atoms: C1_3  and  O1_4 
    2  A    between atoms: C1_3  and  C2_6 
    3  A    between atoms: C7_12  and  C8_13 

>  <TORSDO>
F 3

$$$$
../pdbqt/lig.vina_out.5.pdbqt
 OpenBabel06052021513D

 22 24  0  0  1  0  0  0  0  0999 V2000
  -26.4770   66.1000   24.1860 C   0  0  0  0  0  0  0  0  0  0  0  0
  -27.6680   66.1620   23.4230 C   0  0  0  0  0  0  0  0  0  0  0  0
  -28.8430   65.5100   23.8610 C   0  0  0  0  0  0  0  0  0  0  0  0
  -28.8500   64.7850   25.0650 C   0  0  0  0  0  0  0  0  0  0  0  0
  -27.6700   64.7410   25.7990 C   0  0  0  0  0  0  0  0  0  0  0  0
  -27.4580   64.1040   26.9590 N   0  0  0  0  0  0  0  0  0  0  0  0
  -26.1570   64.3920   27.2240 C   0  0  0  0  0  0  0  0  0  0  0  0
  -25.5500   65.1490   26.2720 N   0  0  0  0  0  0  0  0  0  0  0  0
  -26.5320   65.3670   25.3850 C   0  0  0  0  0  0  0  0  0  0  0  0
  -25.4150   63.8160   28.4130 C   0  0  1  0  0  0  0  0  0  0  0  0
  -25.3350   62.2830   28.2350 C   0  0  0  0  0  0  0  0  0  0  0  0
  -24.0080   64.4120   28.5360 C   0  0  0  0  0  0  0  0  0  0  0  0
  -23.6990   64.3670   30.0210 C   0  0  0  0  0  0  0  0  0  0  0  0
  -25.0470   64.1880   30.7140 C   0  0  0  0  0  0  0  0  0  0  0  0
  -26.0880   64.1550   29.6800 N   0  0  0  0  0  0  0  0  0  0  0  0
  -26.5180   65.1090   29.6230 H   0  0  0  0  0  0  0  0  0  0  0  0
  -26.8360   63.4640   29.9290 H   0  0  0  0  0  0  0  0  0  0  0  0
  -25.2470   66.7840   23.7190 C   0  0  0  0  0  0  0  0  0  0  0  0
  -25.2870   67.5970   22.7110 N   0  0  0  0  0  0  0  0  0  0  0  0
  -24.4300   68.0870   22.3680 H   0  0  0  0  0  0  0  0  0  0  0  0
  -24.0360   66.5480   24.3710 O   0  0  0  0  0  0  0  0  0  0  0  0
  -23.7210   65.6090   24.5840 H   0  0  0  0  0  0  0  0  0  0  0  0
  1  9  2  0  0  0  0
  2  3  2  0  0  0  0
  2  1  1  0  0  0  0
  3  4  1  0  0  0  0
  4  5  2  0  0  0  0
  5  6  1  0  0  0  0
  6  7  2  0  0  0  0
  7 10  1  0  0  0  0
  8  7  1  0  0  0  0
  9  5  1  0  0  0  0
  9  8  1  0  0  0  0
 10 11  1  6  0  0  0
 10 12  1  0  0  0  0
 10 15  1  0  0  0  0
 12 13  1  0  0  0  0
 13 14  1  0  0  0  0
 15 17  1  0  0  0  0
 15 14  1  0  0  0  0
 16 15  1  0  0  0  0
 18  1  1  0  0  0  0
 18 21  1  0  0  0  0
 19 18  2  0  0  0  0
 20 19  1  0  0  0  0
 21 22  1  0  0  0  0
M  END
>  <REMARK>
 VINA RESULT:      -8.3      1.709      2.298
  3 active torsions:
  status: ('A' for Active; 'I' for Inactive)
    1  A    between atoms: C1_3  and  O1_4 
    2  A    between atoms: C1_3  and  C2_6 
    3  A    between atoms: C7_12  and  C8_13 

>  <TORSDO>
F 3

$$$$
../pdbqt/lig.vina_out.5.pdbqt
 OpenBabel06052021513D

 22 24  0  0  1  0  0  0  0  0999 V2000
  -26.9380   66.0630   24.4180 C   0  0  0  0  0  0  0  0  0  0  0  0
  -25.8730   66.6420   23.6860 C   0  0  0  0  0  0  0  0  0  0  0  0
  -24.5390   66.5300   24.1380 C   0  0  0  0  0  0  0  0  0  0  0  0
  -24.2440   65.8390   25.3260 C   0  0  0  0  0  0  0  0  0  0  0  0
  -25.3050   65.2760   26.0250 C   0  0  0  0  0  0  0  0  0  0  0  0
  -25.2470   64.5900   27.1760 N   0  0  0  0  0  0  0  0  0  0  0  0
  -26.5500   64.2770   27.4020 C   0  0  0  0  0  0  0  0  0  0  0  0
  -27.4090   64.7600   26.4660 N   0  0  0  0  0  0  0  0  0  0  0  0
  -26.5950   65.3790   25.5980 C   0  0  0  0  0  0  0  0  0  0  0  0
  -27.0160   63.5610   28.6540 C   0  0  1  0  0  0  0  0  0  0  0  0
  -28.5610   63.5980   28.6850 C   0  0  0  0  0  0  0  0  0  0  0  0
  -26.5180   62.1120   28.6870 C   0  0  0  0  0  0  0  0  0  0  0  0
  -26.3860   61.7840   30.1630 C   0  0  0  0  0  0  0  0  0  0  0  0
  -26.3670   63.1300   30.8810 C   0  0  0  0  0  0  0  0  0  0  0  0
  -26.4590   64.1860   29.8670 N   0  0  0  0  0  0  0  0  0  0  0  0
  -25.4920   64.5460   29.6830 H   0  0  0  0  0  0  0  0  0  0  0  0
  -27.0510   64.9800   30.2120 H   0  0  0  0  0  0  0  0  0  0  0  0
  -28.3360   66.1880   23.9390 C   0  0  0  0  0  0  0  0  0  0  0  0
  -29.0450   65.1330   23.6890 N   0  0  0  0  0  0  0  0  0  0  0  0
  -30.0310   65.2030   23.3510 H   0  0  0  0  0  0  0  0  0  0  0  0
  -28.8910   67.4560   23.7570 O   0  0  0  0  0  0  0  0  0  0  0  0
  -28.3310   68.2430   23.4530 H   0  0  0  0  0  0  0  0  0  0  0  0
  1  9  2  0  0  0  0
  2  3  2  0  0  0  0
  2  1  1  0  0  0  0
  3  4  1  0  0  0  0
  4  5  2  0  0  0  0
  5  6  1  0  0  0  0
  6  7  2  0  0  0  0
  7 10  1  0  0  0  0
  8  7  1  0  0  0  0
  9  5  1  0  0  0  0
  9  8  1  0  0  0  0
 10 11  1  1  0  0  0
 10 12  1  0  0  0  0
 10 15  1  0  0  0  0
 12 13  1  0  0  0  0
 13 14  1  0  0  0  0
 15 17  1  0  0  0  0
 15 14  1  0  0  0  0
 16 15  1  0  0  0  0
 18  1  1  0  0  0  0
 19 18  2  0  0  0  0
 20 19  1  0  0  0  0
 21 18  1  0  0  0  0
 22 21  1  0  0  0  0
M  END
>  <REMARK>
 VINA RESULT:      -7.9      2.410      3.670
  3 active torsions:
  status: ('A' for Active; 'I' for Inactive)
    1  A    between atoms: C1_3  and  O1_4 
    2  A    between atoms: C1_3  and  C2_6 
    3  A    between atoms: C7_12  and  C8_13 

>  <TORSDO>
F 3

$$$$
../pdbqt/lig.vina_out.5.pdbqt
 OpenBabel06052021513D

 22 24  0  0  1  0  0  0  0  0999 V2000
  -26.3420   66.0410   24.1770 C   0  0  0  0  0  0  0  0  0  0  0  0
  -27.6420   65.8740   24.7130 C   0  0  0  0  0  0  0  0  0  0  0  0
  -27.8450   65.1450   25.9060 C   0  0  0  0  0  0  0  0  0  0  0  0
  -26.7580   64.5690   26.5850 C   0  0  0  0  0  0  0  0  0  0  0  0
  -25.4900   64.7490   26.0420 C   0  0  0  0  0  0  0  0  0  0  0  0
  -24.3280   64.2800   26.5190 N   0  0  0  0  0  0  0  0  0  0  0  0
  -23.4260   64.7470   25.6160 C   0  0  0  0  0  0  0  0  0  0  0  0
  -23.9760   65.4530   24.5930 N   0  0  0  0  0  0  0  0  0  0  0  0
  -25.2840   65.4510   24.8920 C   0  0  0  0  0  0  0  0  0  0  0  0
  -21.9510   64.4030   25.6780 C   0  0  1  0  0  0  0  0  0  0  0  0
  -21.1700   65.4870   24.9020 C   0  0  0  0  0  0  0  0  0  0  0  0
  -21.4560   64.3220   27.1260 C   0  0  0  0  0  0  0  0  0  0  0  0
  -20.3190   63.3180   27.0890 C   0  0  0  0  0  0  0  0  0  0  0  0
  -20.4940   62.5490   25.7820 C   0  0  0  0  0  0  0  0  0  0  0  0
  -21.6890   63.0680   25.1070 N   0  0  0  0  0  0  0  0  0  0  0  0
  -22.4860   62.4190   25.3130 H   0  0  0  0  0  0  0  0  0  0  0  0
  -21.5440   63.1020   24.0700 H   0  0  0  0  0  0  0  0  0  0  0  0
  -26.1370   66.8050   22.9230 C   0  0  0  0  0  0  0  0  0  0  0  0
  -27.0000   66.7350   21.9590 N   0  0  0  0  0  0  0  0  0  0  0  0
  -26.8710   67.2670   21.0690 H   0  0  0  0  0  0  0  0  0  0  0  0
  -25.0020   67.6050   22.7810 O   0  0  0  0  0  0  0  0  0  0  0  0
  -24.1230   67.3640   23.2220 H   0  0  0  0  0  0  0  0  0  0  0  0
  1  2  2  0  0  0  0
  1  9  1  0  0  0  0
  2  3  1  0  0  0  0
  3  4  2  0  0  0  0
  5  6  1  0  0  0  0
  5  4  1  0  0  0  0
  7 10  1  0  0  0  0
  7  6  2  0  0  0  0
  8  9  1  0  0  0  0
  8  7  1  0  0  0  0
  9  5  2  0  0  0  0
 10 11  1  6  0  0  0
 10 12  1  0  0  0  0
 13 12  1  0  0  0  0
 14 13  1  0  0  0  0
 15 16  1  0  0  0  0
 15 10  1  0  0  0  0
 15 14  1  0  0  0  0
 17 15  1  0  0  0  0
 18  1  1  0  0  0  0
 19 18  2  0  0  0  0
 20 19  1  0  0  0  0
 21 18  1  0  0  0  0
 21 22  1  0  0  0  0
M  END
>  <REMARK>
 VINA RESULT:      -7.9      1.672      2.325
  3 active torsions:
  status: ('A' for Active; 'I' for Inactive)
    1  A    between atoms: C1_3  and  O1_4 
    2  A    between atoms: C1_3  and  C2_6 
    3  A    between atoms: C7_12  and  C8_13 

>  <TORSDO>
F 3

$$$$
../pdbqt/lig.vina_out.5.pdbqt
 OpenBabel06052021513D

 22 24  0  0  1  0  0  0  0  0999 V2000
  -24.5650   66.3570   24.5140 C   0  0  0  0  0  0  0  0  0  0  0  0
  -25.1060   67.0490   23.4030 C   0  0  0  0  0  0  0  0  0  0  0  0
  -26.4990   67.0610   23.1670 C   0  0  0  0  0  0  0  0  0  0  0  0
  -27.3750   66.3850   24.0320 C   0  0  0  0  0  0  0  0  0  0  0  0
  -26.8220   65.7160   25.1180 C   0  0  0  0  0  0  0  0  0  0  0  0
  -27.4710   65.0050   26.0520 N   0  0  0  0  0  0  0  0  0  0  0  0
  -26.4620   64.5820   26.8590 C   0  0  0  0  0  0  0  0  0  0  0  0
  -25.2240   64.9710   26.4520 N   0  0  0  0  0  0  0  0  0  0  0  0
  -25.4790   65.6980   25.3540 C   0  0  0  0  0  0  0  0  0  0  0  0
  -26.6880   63.6540   28.0350 C   0  0  1  0  0  0  0  0  0  0  0  0
  -28.2040   63.3800   28.1500 C   0  0  0  0  0  0  0  0  0  0  0  0
  -25.9200   62.3380   27.8640 C   0  0  0  0  0  0  0  0  0  0  0  0
  -25.6180   61.8820   29.2790 C   0  0  0  0  0  0  0  0  0  0  0  0
  -25.8020   63.1180   30.1560 C   0  0  0  0  0  0  0  0  0  0  0  0
  -26.1710   64.2400   29.2860 N   0  0  0  0  0  0  0  0  0  0  0  0
  -25.3070   64.8030   29.0970 H   0  0  0  0  0  0  0  0  0  0  0  0
  -26.8760   64.8570   29.7550 H   0  0  0  0  0  0  0  0  0  0  0  0
  -23.1010   66.3450   24.7530 C   0  0  0  0  0  0  0  0  0  0  0  0
  -22.4130   67.4410   24.6870 N   0  0  0  0  0  0  0  0  0  0  0  0
  -21.3810   67.4510   24.8520 H   0  0  0  0  0  0  0  0  0  0  0  0
  -22.4610   65.1420   25.0520 O   0  0  0  0  0  0  0  0  0  0  0  0
  -22.6070   64.3090   24.4930 H   0  0  0  0  0  0  0  0  0  0  0  0
  1 18  1  0  0  0  0
  1  9  2  0  0  0  0
  2  1  1  0  0  0  0
  3  2  2  0  0  0  0
  3  4  1  0  0  0  0
  4  5  2  0  0  0  0
  5  9  1  0  0  0  0
  5  6  1  0  0  0  0
  6  7  2  0  0  0  0
  7 10  1  0  0  0  0
  8  7  1  0  0  0  0
  9  8  1  0  0  0  0
 10 11  1  1  0  0  0
 10 15  1  0  0  0  0
 12 10  1  0  0  0  0
 12 13  1  0  0  0  0
 13 14  1  0  0  0  0
 15 17  1  0  0  0  0
 15 14  1  0  0  0  0
 16 15  1  0  0  0  0
 18 21  1  0  0  0  0
 19 18  2  0  0  0  0
 19 20  1  0  0  0  0
 22 21  1  0  0  0  0
M  END
>  <REMARK>
 VINA RESULT:      -7.7      2.529      3.395
  3 active torsions:
  status: ('A' for Active; 'I' for Inactive)
    1  A    between atoms: C1_3  and  O1_4 
    2  A    between atoms: C1_3  and  C2_6 
    3  A    between atoms: C7_12  and  C8_13 

>  <TORSDO>
F 3

$$$$
../pdbqt/lig.vina_out.5.pdbqt
 OpenBabel06052021513D

 22 24  0  0  1  0  0  0  0  0999 V2000
  -27.2690   65.1620   25.7620 C   0  0  0  0  0  0  0  0  0  0  0  0
  -28.3940   65.5690   25.0040 C   0  0  0  0  0  0  0  0  0  0  0  0
  -28.2420   66.4010   23.8720 C   0  0  0  0  0  0  0  0  0  0  0  0
  -26.9670   66.8410   23.4760 C   0  0  0  0  0  0  0  0  0  0  0  0
  -25.8770   66.4260   24.2330 C   0  0  0  0  0  0  0  0  0  0  0  0
  -24.5880   66.7350   24.0380 N   0  0  0  0  0  0  0  0  0  0  0  0
  -23.9660   66.0700   25.0470 C   0  0  0  0  0  0  0  0  0  0  0  0
  -24.8100   65.3930   25.8700 N   0  0  0  0  0  0  0  0  0  0  0  0
  -26.0140   65.6230   25.3260 C   0  0  0  0  0  0  0  0  0  0  0  0
  -22.4770   66.1790   25.3060 C   0  0  1  0  0  0  0  0  0  0  0  0
  -22.2440   66.0850   26.8310 C   0  0  0  0  0  0  0  0  0  0  0  0
  -21.7010   65.0730   24.5800 C   0  0  0  0  0  0  0  0  0  0  0  0
  -20.3400   65.6810   24.2970 C   0  0  0  0  0  0  0  0  0  0  0  0
  -20.5250   67.1880   24.4460 C   0  0  0  0  0  0  0  0  0  0  0  0
  -21.9320   67.4420   24.7760 N   0  0  0  0  0  0  0  0  0  0  0  0
  -22.4280   67.7140   23.8940 H   0  0  0  0  0  0  0  0  0  0  0  0
  -22.0150   68.2290   25.4630 H   0  0  0  0  0  0  0  0  0  0  0  0
  -27.4380   64.2920   26.9500 C   0  0  0  0  0  0  0  0  0  0  0  0
  -26.5670   64.3100   27.9100 N   0  0  0  0  0  0  0  0  0  0  0  0
  -26.6700   63.7030   28.7550 H   0  0  0  0  0  0  0  0  0  0  0  0
  -28.5440   63.4450   27.0340 O   0  0  0  0  0  0  0  0  0  0  0  0
  -29.2700   63.5860   27.7260 H   0  0  0  0  0  0  0  0  0  0  0  0
  1 18  1  0  0  0  0
  2  1  2  0  0  0  0
  3  2  1  0  0  0  0
  4  3  2  0  0  0  0
  4  5  1  0  0  0  0
  5  9  2  0  0  0  0
  6  5  1  0  0  0  0
  6  7  2  0  0  0  0
  7 10  1  0  0  0  0
  7  8  1  0  0  0  0
  9  1  1  0  0  0  0
  9  8  1  0  0  0  0
 10 11  1  1  0  0  0
 12 10  1  0  0  0  0
 13 14  1  0  0  0  0
 13 12  1  0  0  0  0
 14 15  1  0  0  0  0
 15 10  1  0  0  0  0
 15 17  1  0  0  0  0
 16 15  1  0  0  0  0
 18 21  1  0  0  0  0
 18 19  2  0  0  0  0
 19 20  1  0  0  0  0
 21 22  1  0  0  0  0
M  END
>  <REMARK>
 VINA RESULT:      -7.6      2.482      3.575
  3 active torsions:
  status: ('A' for Active; 'I' for Inactive)
    1  A    between atoms: C1_3  and  O1_4 
    2  A    between atoms: C1_3  and  C2_6 
    3  A    between atoms: C7_12  and  C8_13 

>  <TORSDO>
F 3

$$$$
../pdbqt/lig.vina_out.5.pdbqt
 OpenBabel06052021513D

 22 24  0  0  1  0  0  0  0  0999 V2000
  -27.2540   65.7370   24.7170 C   0  0  0  0  0  0  0  0  0  0  0  0
  -28.4860   65.1350   25.0680 C   0  0  0  0  0  0  0  0  0  0  0  0
  -28.5750   64.2570   26.1720 C   0  0  0  0  0  0  0  0  0  0  0  0
  -27.4380   63.9650   26.9440 C   0  0  0  0  0  0  0  0  0  0  0  0
  -26.2400   64.5710   26.5840 C   0  0  0  0  0  0  0  0  0  0  0  0
  -25.0450   64.4230   27.1730 N   0  0  0  0  0  0  0  0  0  0  0  0
  -24.2440   65.2300   26.4290 C   0  0  0  0  0  0  0  0  0  0  0  0
  -24.8780   65.8430   25.3940 N   0  0  0  0  0  0  0  0  0  0  0  0
  -26.1440   65.4190   25.5200 C   0  0  0  0  0  0  0  0  0  0  0  0
  -22.7490   65.3380   26.6570 C   0  0  1  0  0  0  0  0  0  0  0  0
  -22.1020   63.9930   26.2570 C   0  0  0  0  0  0  0  0  0  0  0  0
  -22.1410   66.4850   25.8420 C   0  0  0  0  0  0  0  0  0  0  0  0
  -20.9460   66.9440   26.6560 C   0  0  0  0  0  0  0  0  0  0  0  0
  -21.1690   66.3880   28.0600 C   0  0  0  0  0  0  0  0  0  0  0  0
  -22.4440   65.6610   28.0620 N   0  0  0  0  0  0  0  0  0  0  0  0
  -23.1780   66.2950   28.4610 H   0  0  0  0  0  0  0  0  0  0  0  0
  -22.3800   64.8040   28.6620 H   0  0  0  0  0  0  0  0  0  0  0  0
  -27.1680   66.6550   23.5550 C   0  0  0  0  0  0  0  0  0  0  0  0
  -27.9750   66.5240   22.5500 N   0  0  0  0  0  0  0  0  0  0  0  0
  -27.9280   67.1610   21.7230 H   0  0  0  0  0  0  0  0  0  0  0  0
  -26.2080   67.6670   23.5460 O   0  0  0  0  0  0  0  0  0  0  0  0
  -25.8830   68.0830   22.6820 H   0  0  0  0  0  0  0  0  0  0  0  0
  1  2  2  0  0  0  0
  1  9  1  0  0  0  0
  2  3  1  0  0  0  0
  3  4  2  0  0  0  0
  5  4  1  0  0  0  0
  5  6  1  0  0  0  0
  7 10  1  0  0  0  0
  7  6  2  0  0  0  0
  8  9  1  0  0  0  0
  8  7  1  0  0  0  0
  9  5  2  0  0  0  0
 10 11  1  6  0  0  0
 10 15  1  0  0  0  0
 12 13  1  0  0  0  0
 12 10  1  0  0  0  0
 13 14  1  0  0  0  0
 14 15  1  0  0  0  0
 15 16  1  0  0  0  0
 15 17  1  0  0  0  0
 18  1  1  0  0  0  0
 19 18  2  0  0  0  0
 20 19  1  0  0  0  0
 21 18  1  0  0  0  0
 22 21  1  0  0  0  0
M  END
>  <REMARK>
 VINA RESULT:      -7.3      1.506      2.092
  3 active torsions:
  status: ('A' for Active; 'I' for Inactive)
    1  A    between atoms: C1_3  and  O1_4 
    2  A    between atoms: C1_3  and  C2_6 
    3  A    between atoms: C7_12  and  C8_13 

>  <TORSDO>
F 3

$$$$
../pdbqt/lig.vina_out.5.pdbqt
 OpenBabel06052021513D

 22 24  0  0  1  0  0  0  0  0999 V2000
  -27.1230   63.5210   27.4750 C   0  0  0  0  0  0  0  0  0  0  0  0
  -27.2860   62.3910   28.3130 C   0  0  0  0  0  0  0  0  0  0  0  0
  -26.1680   61.6420   28.7440 C   0  0  0  0  0  0  0  0  0  0  0  0
  -24.8700   62.0070   28.3490 C   0  0  0  0  0  0  0  0  0  0  0  0
  -24.7340   63.1220   27.5300 C   0  0  0  0  0  0  0  0  0  0  0  0
  -23.5980   63.6320   27.0330 N   0  0  0  0  0  0  0  0  0  0  0  0
  -24.0380   64.6990   26.3170 C   0  0  0  0  0  0  0  0  0  0  0  0
  -25.3890   64.8540   26.3230 N   0  0  0  0  0  0  0  0  0  0  0  0
  -25.8060   63.8500   27.1080 C   0  0  0  0  0  0  0  0  0  0  0  0
  -23.1150   65.5650   25.4830 C   0  0  1  0  0  0  0  0  0  0  0  0
  -23.9850   66.4610   24.5730 C   0  0  0  0  0  0  0  0  0  0  0  0
  -22.2060   66.4260   26.3660 C   0  0  0  0  0  0  0  0  0  0  0  0
  -20.9460   66.6240   25.5450 C   0  0  0  0  0  0  0  0  0  0  0  0
  -20.9840   65.5430   24.4690 C   0  0  0  0  0  0  0  0  0  0  0  0
  -22.1970   64.7420   24.6740 N   0  0  0  0  0  0  0  0  0  0  0  0
  -21.9280   63.8730   25.1940 H   0  0  0  0  0  0  0  0  0  0  0  0
  -22.6180   64.4660   23.7540 H   0  0  0  0  0  0  0  0  0  0  0  0
  -28.3020   64.3000   27.0230 C   0  0  0  0  0  0  0  0  0  0  0  0
  -28.6350   64.3260   25.7710 N   0  0  0  0  0  0  0  0  0  0  0  0
  -29.4620   64.8690   25.4360 H   0  0  0  0  0  0  0  0  0  0  0  0
  -29.0570   65.0110   27.9560 O   0  0  0  0  0  0  0  0  0  0  0  0
  -29.5820   64.5410   28.6840 H   0  0  0  0  0  0  0  0  0  0  0  0
  1  2  1  0  0  0  0
  2  3  2  0  0  0  0
  4  3  1  0  0  0  0
  5  4  2  0  0  0  0
  6  5  1  0  0  0  0
  7  8  1  0  0  0  0
  7  6  2  0  0  0  0
  8  9  1  0  0  0  0
  9  1  2  0  0  0  0
  9  5  1  0  0  0  0
 10 11  1  6  0  0  0
 10  7  1  0  0  0  0
 10 12  1  0  0  0  0
 13 12  1  0  0  0  0
 14 15  1  0  0  0  0
 14 13  1  0  0  0  0
 15 16  1  0  0  0  0
 15 10  1  0  0  0  0
 17 15  1  0  0  0  0
 18  1  1  0  0  0  0
 18 21  1  0  0  0  0
 19 18  2  0  0  0  0
 20 19  1  0  0  0  0
 21 22  1  0  0  0  0
M  END
>  <REMARK>
 VINA RESULT:      -7.0      2.863      4.286
  3 active torsions:
  status: ('A' for Active; 'I' for Inactive)
    1  A    between atoms: C1_3  and  O1_4 
    2  A    between atoms: C1_3  and  C2_6 
    3  A    between atoms: C7_12  and  C8_13 

>  <TORSDO>
F 3

$$$$
