../pdbqt/lig.vina_out.4.pdbqt
 OpenBabel06052021513D

 24 26  0  0  0  0  0  0  0  0999 V2000
  -27.0550   66.1210   23.8580 C   0  0  0  0  0  0  0  0  0  0  0  0
  -28.4230   65.7740   23.7560 C   0  0  0  0  0  0  0  0  0  0  0  0
  -29.0430   64.9750   24.7420 C   0  0  0  0  0  0  0  0  0  0  0  0
  -28.3110   64.5090   25.8460 C   0  0  0  0  0  0  0  0  0  0  0  0
  -26.9690   64.8630   25.9290 C   0  0  0  0  0  0  0  0  0  0  0  0
  -26.0930   64.5270   26.8870 N   0  0  0  0  0  0  0  0  0  0  0  0
  -24.9500   65.1320   26.4720 C   0  0  0  0  0  0  0  0  0  0  0  0
  -25.0750   65.8160   25.3060 N   0  0  0  0  0  0  0  0  0  0  0  0
  -26.3640   65.6340   24.9820 C   0  0  0  0  0  0  0  0  0  0  0  0
  -23.6520   65.0100   27.2330 C   0  0  0  0  0  0  0  0  0  0  0  0
  -23.3840   63.5640   27.6770 C   0  0  0  0  0  0  0  0  0  0  0  0
  -22.8620   62.6920   26.5270 C   0  0  0  0  0  0  0  0  0  0  0  0
  -21.6460   63.2720   25.9120 N   0  0  0  0  0  0  0  0  0  0  0  0
  -20.9180   63.3530   26.6610 H   0  0  0  0  0  0  0  0  0  0  0  0
  -21.9370   64.6190   25.3650 C   0  0  0  0  0  0  0  0  0  0  0  0
  -22.4540   65.5780   26.4520 C   0  0  0  0  0  0  0  0  0  0  0  0
  -21.1560   62.3490   24.8550 C   0  0  0  0  0  0  0  0  0  0  0  0
  -21.8940   62.4690   23.5030 C   0  0  0  0  0  0  0  0  0  0  0  0
  -20.9610   62.4270   22.2950 C   0  0  0  0  0  0  0  0  0  0  0  0
  -26.4070   66.9570   22.8180 C   0  0  0  0  0  0  0  0  0  0  0  0
  -25.5580   67.8800   23.1470 N   0  0  0  0  0  0  0  0  0  0  0  0
  -25.0930   68.4770   22.4280 H   0  0  0  0  0  0  0  0  0  0  0  0
  -26.7170   66.7470   21.4740 O   0  0  0  0  0  0  0  0  0  0  0  0
  -27.5050   67.2040   21.0320 H   0  0  0  0  0  0  0  0  0  0  0  0
  1  9  1  0  0  0  0
  2  1  2  0  0  0  0
  2  3  1  0  0  0  0
  3  4  2  0  0  0  0
  4  5  1  0  0  0  0
  5  6  1  0  0  0  0
  7  6  2  0  0  0  0
  7 10  1  0  0  0  0
  8  7  1  0  0  0  0
  9  8  1  0  0  0  0
  9  5  2  0  0  0  0
 10 11  1  0  0  0  0
 12 11  1  0  0  0  0
 13 12  1  0  0  0  0
 13 14  1  0  0  0  0
 15 13  1  0  0  0  0
 15 16  1  0  0  0  0
 16 10  1  0  0  0  0
 17 13  1  0  0  0  0
 18 17  1  0  0  0  0
 19 18  1  0  0  0  0
 20 21  2  0  0  0  0
 20  1  1  0  0  0  0
 22 21  1  0  0  0  0
 23 20  1  0  0  0  0
 24 23  1  0  0  0  0
M  END
>  <MODEL>
1

>  <REMARK>
 VINA RESULT:      -8.9      0.000      0.000
  5 active torsions:
  status: ('A' for Active; 'I' for Inactive)
    1  A    between atoms: C1_3  and  O1_4 
    2  A    between atoms: C1_3  and  C2_6 
    3  A    between atoms: C7_12  and  C8_13 
    4  A    between atoms: N3_16  and  C11_18 
    5  A    between atoms: C11_18  and  C12_19 

>  <TORSDO>
F 5

$$$$
../pdbqt/lig.vina_out.4.pdbqt
 OpenBabel06052021513D

 24 26  0  0  0  0  0  0  0  0999 V2000
  -26.2560   66.2860   24.4760 C   0  0  0  0  0  0  0  0  0  0  0  0
  -27.5570   66.6710   24.0710 C   0  0  0  0  0  0  0  0  0  0  0  0
  -28.7010   66.1050   24.6760 C   0  0  0  0  0  0  0  0  0  0  0  0
  -28.5690   65.1450   25.6930 C   0  0  0  0  0  0  0  0  0  0  0  0
  -27.2820   64.7830   26.0770 C   0  0  0  0  0  0  0  0  0  0  0  0
  -26.9310   63.8920   27.0150 N   0  0  0  0  0  0  0  0  0  0  0  0
  -25.5740   63.9330   26.9730 C   0  0  0  0  0  0  0  0  0  0  0  0
  -25.0730   64.7960   26.0520 N   0  0  0  0  0  0  0  0  0  0  0  0
  -26.1740   65.3250   25.4990 C   0  0  0  0  0  0  0  0  0  0  0  0
  -24.7130   63.0580   27.8510 C   0  0  0  0  0  0  0  0  0  0  0  0
  -24.0550   63.8580   28.9850 C   0  0  0  0  0  0  0  0  0  0  0  0
  -25.0330   64.1500   30.1310 C   0  0  0  0  0  0  0  0  0  0  0  0
  -25.6340   62.9060   30.6650 N   0  0  0  0  0  0  0  0  0  0  0  0
  -24.8540   62.2960   31.0050 H   0  0  0  0  0  0  0  0  0  0  0  0
  -26.3820   62.1970   29.6000 C   0  0  0  0  0  0  0  0  0  0  0  0
  -25.4790   61.8440   28.4050 C   0  0  0  0  0  0  0  0  0  0  0  0
  -26.5150   63.2520   31.8110 C   0  0  0  0  0  0  0  0  0  0  0  0
  -26.6820   64.7680   32.0600 C   0  0  0  0  0  0  0  0  0  0  0  0
  -28.1100   65.1720   32.4200 C   0  0  0  0  0  0  0  0  0  0  0  0
  -25.0590   66.8820   23.8350 C   0  0  0  0  0  0  0  0  0  0  0  0
  -23.9050   66.8390   24.4240 N   0  0  0  0  0  0  0  0  0  0  0  0
  -23.0510   67.2520   23.9880 H   0  0  0  0  0  0  0  0  0  0  0  0
  -25.1770   67.4950   22.5870 O   0  0  0  0  0  0  0  0  0  0  0  0
  -25.9910   67.3530   22.0010 H   0  0  0  0  0  0  0  0  0  0  0  0
  1  9  1  0  0  0  0
  2  1  2  0  0  0  0
  2  3  1  0  0  0  0
  3  4  2  0  0  0  0
  4  5  1  0  0  0  0
  5  6  1  0  0  0  0
  7  6  2  0  0  0  0
  7 10  1  0  0  0  0
  8  7  1  0  0  0  0
  9  8  1  0  0  0  0
  9  5  2  0  0  0  0
 10 16  1  0  0  0  0
 10 11  1  0  0  0  0
 11 12  1  0  0  0  0
 12 13  1  0  0  0  0
 13 14  1  0  0  0  0
 13 17  1  0  0  0  0
 15 13  1  0  0  0  0
 16 15  1  0  0  0  0
 17 18  1  0  0  0  0
 18 19  1  0  0  0  0
 20 21  2  0  0  0  0
 20  1  1  0  0  0  0
 22 21  1  0  0  0  0
 23 20  1  0  0  0  0
 24 23  1  0  0  0  0
M  END
>  <REMARK>
 VINA RESULT:      -8.3      2.873      4.877
  5 active torsions:
  status: ('A' for Active; 'I' for Inactive)
    1  A    between atoms: C1_3  and  O1_4 
    2  A    between atoms: C1_3  and  C2_6 
    3  A    between atoms: C7_12  and  C8_13 
    4  A    between atoms: N3_16  and  C11_18 
    5  A    between atoms: C11_18  and  C12_19 

>  <TORSDO>
F 5

$$$$
../pdbqt/lig.vina_out.4.pdbqt
 OpenBabel06052021513D

 24 26  0  0  0  0  0  0  0  0999 V2000
  -26.7930   66.3620   24.0040 C   0  0  0  0  0  0  0  0  0  0  0  0
  -28.1960   66.4230   24.1790 C   0  0  0  0  0  0  0  0  0  0  0  0
  -28.8210   65.7650   25.2620 C   0  0  0  0  0  0  0  0  0  0  0  0
  -28.0580   65.0360   26.1880 C   0  0  0  0  0  0  0  0  0  0  0  0
  -26.6810   64.9910   25.9990 C   0  0  0  0  0  0  0  0  0  0  0  0
  -25.7740   64.3550   26.7550 N   0  0  0  0  0  0  0  0  0  0  0  0
  -24.6060   64.6400   26.1230 C   0  0  0  0  0  0  0  0  0  0  0  0
  -24.7480   65.4110   25.0140 N   0  0  0  0  0  0  0  0  0  0  0  0
  -26.0710   65.6230   24.9570 C   0  0  0  0  0  0  0  0  0  0  0  0
  -23.2790   64.1040   26.6020 C   0  0  0  0  0  0  0  0  0  0  0  0
  -22.3180   63.8330   25.4340 C   0  0  0  0  0  0  0  0  0  0  0  0
  -21.6740   65.1210   24.9040 C   0  0  0  0  0  0  0  0  0  0  0  0
  -20.9770   65.8650   25.9780 N   0  0  0  0  0  0  0  0  0  0  0  0
  -20.2420   65.2350   26.3770 H   0  0  0  0  0  0  0  0  0  0  0  0
  -21.9320   66.2420   27.0470 C   0  0  0  0  0  0  0  0  0  0  0  0
  -22.6220   65.0100   27.6580 C   0  0  0  0  0  0  0  0  0  0  0  0
  -20.3220   67.0610   25.3860 C   0  0  0  0  0  0  0  0  0  0  0  0
  -20.8220   68.4120   25.9450 C   0  0  0  0  0  0  0  0  0  0  0  0
  -19.7060   69.4330   26.1570 C   0  0  0  0  0  0  0  0  0  0  0  0
  -26.1430   67.0520   22.8630 C   0  0  0  0  0  0  0  0  0  0  0  0
  -26.6180   66.9340   21.6630 N   0  0  0  0  0  0  0  0  0  0  0  0
  -26.1730   67.4130   20.8490 H   0  0  0  0  0  0  0  0  0  0  0  0
  -25.0100   67.8350   23.0870 O   0  0  0  0  0  0  0  0  0  0  0  0
  -24.3220   67.5860   23.7870 H   0  0  0  0  0  0  0  0  0  0  0  0
  1  2  2  0  0  0  0
  1  9  1  0  0  0  0
  2  3  1  0  0  0  0
  3  4  2  0  0  0  0
  5  4  1  0  0  0  0
  5  6  1  0  0  0  0
  7 10  1  0  0  0  0
  7  6  2  0  0  0  0
  8  7  1  0  0  0  0
  9  8  1  0  0  0  0
  9  5  2  0  0  0  0
 10 16  1  0  0  0  0
 11 10  1  0  0  0  0
 12 11  1  0  0  0  0
 12 13  1  0  0  0  0
 13 14  1  0  0  0  0
 13 15  1  0  0  0  0
 15 16  1  0  0  0  0
 17 18  1  0  0  0  0
 17 13  1  0  0  0  0
 18 19  1  0  0  0  0
 20 23  1  0  0  0  0
 20  1  1  0  0  0  0
 21 20  2  0  0  0  0
 22 21  1  0  0  0  0
 23 24  1  0  0  0  0
M  END
>  <REMARK>
 VINA RESULT:      -8.1      1.798      2.908
  5 active torsions:
  status: ('A' for Active; 'I' for Inactive)
    1  A    between atoms: C1_3  and  O1_4 
    2  A    between atoms: C1_3  and  C2_6 
    3  A    between atoms: C7_12  and  C8_13 
    4  A    between atoms: N3_16  and  C11_18 
    5  A    between atoms: C11_18  and  C12_19 

>  <TORSDO>
F 5

$$$$
../pdbqt/lig.vina_out.4.pdbqt
 OpenBabel06052021513D

 24 26  0  0  0  0  0  0  0  0999 V2000
  -26.9860   66.2040   24.2520 C   0  0  0  0  0  0  0  0  0  0  0  0
  -26.1580   67.0340   23.4590 C   0  0  0  0  0  0  0  0  0  0  0  0
  -24.7650   67.1010   23.6900 C   0  0  0  0  0  0  0  0  0  0  0  0
  -24.1750   66.3430   24.7140 C   0  0  0  0  0  0  0  0  0  0  0  0
  -25.0070   65.5330   25.4800 C   0  0  0  0  0  0  0  0  0  0  0  0
  -24.6560   64.7380   26.5020 N   0  0  0  0  0  0  0  0  0  0  0  0
  -25.8420   64.1910   26.8750 C   0  0  0  0  0  0  0  0  0  0  0  0
  -26.9040   64.6150   26.1430 N   0  0  0  0  0  0  0  0  0  0  0  0
  -26.3500   65.4630   25.2640 C   0  0  0  0  0  0  0  0  0  0  0  0
  -25.9570   63.2300   28.0330 C   0  0  0  0  0  0  0  0  0  0  0  0
  -24.8480   62.1670   28.0050 C   0  0  0  0  0  0  0  0  0  0  0  0
  -23.5080   62.7150   28.5150 C   0  0  0  0  0  0  0  0  0  0  0  0
  -23.6350   63.2870   29.8760 N   0  0  0  0  0  0  0  0  0  0  0  0
  -23.9760   62.5260   30.5090 H   0  0  0  0  0  0  0  0  0  0  0  0
  -24.6110   64.4020   29.8760 C   0  0  0  0  0  0  0  0  0  0  0  0
  -25.9990   63.9470   29.3940 C   0  0  0  0  0  0  0  0  0  0  0  0
  -22.2940   63.7360   30.3340 C   0  0  0  0  0  0  0  0  0  0  0  0
  -21.1190   62.8640   29.8370 C   0  0  0  0  0  0  0  0  0  0  0  0
  -20.4630   62.0400   30.9430 C   0  0  0  0  0  0  0  0  0  0  0  0
  -28.4470   66.1400   24.0080 C   0  0  0  0  0  0  0  0  0  0  0  0
  -29.1420   67.2260   23.8740 N   0  0  0  0  0  0  0  0  0  0  0  0
  -30.1720   67.1990   23.7010 H   0  0  0  0  0  0  0  0  0  0  0  0
  -29.0770   64.8980   23.9230 O   0  0  0  0  0  0  0  0  0  0  0  0
  -30.0800   64.8180   23.8080 H   0  0  0  0  0  0  0  0  0  0  0  0
  1  9  2  0  0  0  0
  2  3  2  0  0  0  0
  2  1  1  0  0  0  0
  3  4  1  0  0  0  0
  4  5  2  0  0  0  0
  5  6  1  0  0  0  0
  6  7  2  0  0  0  0
  7 10  1  0  0  0  0
  8  7  1  0  0  0  0
  9  5  1  0  0  0  0
  9  8  1  0  0  0  0
 10 16  1  0  0  0  0
 11 10  1  0  0  0  0
 11 12  1  0  0  0  0
 12 13  1  0  0  0  0
 13 15  1  0  0  0  0
 13 17  1  0  0  0  0
 13 14  1  0  0  0  0
 16 15  1  0  0  0  0
 18 17  1  0  0  0  0
 18 19  1  0  0  0  0
 20  1  1  0  0  0  0
 21 20  2  0  0  0  0
 22 21  1  0  0  0  0
 23 20  1  0  0  0  0
 24 23  1  0  0  0  0
M  END
>  <REMARK>
 VINA RESULT:      -7.8      2.701      4.024
  5 active torsions:
  status: ('A' for Active; 'I' for Inactive)
    1  A    between atoms: C1_3  and  O1_4 
    2  A    between atoms: C1_3  and  C2_6 
    3  A    between atoms: C7_12  and  C8_13 
    4  A    between atoms: N3_16  and  C11_18 
    5  A    between atoms: C11_18  and  C12_19 

>  <TORSDO>
F 5

$$$$
../pdbqt/lig.vina_out.4.pdbqt
 OpenBabel06052021513D

 24 26  0  0  0  0  0  0  0  0999 V2000
  -26.9060   65.9830   24.5960 C   0  0  0  0  0  0  0  0  0  0  0  0
  -25.9070   66.7850   23.9950 C   0  0  0  0  0  0  0  0  0  0  0  0
  -24.5520   66.6620   24.3750 C   0  0  0  0  0  0  0  0  0  0  0  0
  -24.1700   65.7380   25.3620 C   0  0  0  0  0  0  0  0  0  0  0  0
  -25.1660   64.9590   25.9390 C   0  0  0  0  0  0  0  0  0  0  0  0
  -25.0240   64.0260   26.8930 N   0  0  0  0  0  0  0  0  0  0  0  0
  -26.2970   63.5900   27.0750 C   0  0  0  0  0  0  0  0  0  0  0  0
  -27.2160   64.2100   26.2900 N   0  0  0  0  0  0  0  0  0  0  0  0
  -26.4750   65.0710   25.5760 C   0  0  0  0  0  0  0  0  0  0  0  0
  -26.6490   62.5360   28.0970 C   0  0  0  0  0  0  0  0  0  0  0  0
  -25.5440   62.3720   29.1520 C   0  0  0  0  0  0  0  0  0  0  0  0
  -25.5800   63.4890   30.2040 C   0  0  0  0  0  0  0  0  0  0  0  0
  -26.9050   63.5790   30.8600 N   0  0  0  0  0  0  0  0  0  0  0  0
  -27.1000   62.6550   31.3110 H   0  0  0  0  0  0  0  0  0  0  0  0
  -27.9570   63.8670   29.8560 C   0  0  0  0  0  0  0  0  0  0  0  0
  -28.0140   62.7890   28.7610 C   0  0  0  0  0  0  0  0  0  0  0  0
  -26.8500   64.6300   31.9100 C   0  0  0  0  0  0  0  0  0  0  0  0
  -28.1690   64.8300   32.6900 C   0  0  0  0  0  0  0  0  0  0  0  0
  -28.3960   66.2710   33.1420 C   0  0  0  0  0  0  0  0  0  0  0  0
  -28.3270   66.1180   24.1950 C   0  0  0  0  0  0  0  0  0  0  0  0
  -29.0680   65.0690   24.0260 N   0  0  0  0  0  0  0  0  0  0  0  0
  -30.0710   65.1450   23.7440 H   0  0  0  0  0  0  0  0  0  0  0  0
  -28.8690   67.3890   23.9990 O   0  0  0  0  0  0  0  0  0  0  0  0
  -29.8490   67.5800   24.1700 H   0  0  0  0  0  0  0  0  0  0  0  0
  1  9  2  0  0  0  0
  2  3  2  0  0  0  0
  2  1  1  0  0  0  0
  3  4  1  0  0  0  0
  4  5  2  0  0  0  0
  5  6  1  0  0  0  0
  6  7  2  0  0  0  0
  7 10  1  0  0  0  0
  8  7  1  0  0  0  0
  9  5  1  0  0  0  0
  9  8  1  0  0  0  0
 10 16  1  0  0  0  0
 10 11  1  0  0  0  0
 11 12  1  0  0  0  0
 12 13  1  0  0  0  0
 13 14  1  0  0  0  0
 13 17  1  0  0  0  0
 15 13  1  0  0  0  0
 16 15  1  0  0  0  0
 17 18  1  0  0  0  0
 18 19  1  0  0  0  0
 20  1  1  0  0  0  0
 21 20  2  0  0  0  0
 22 21  1  0  0  0  0
 23 24  1  0  0  0  0
 23 20  1  0  0  0  0
M  END
>  <REMARK>
 VINA RESULT:      -7.6      3.483      5.815
  5 active torsions:
  status: ('A' for Active; 'I' for Inactive)
    1  A    between atoms: C1_3  and  O1_4 
    2  A    between atoms: C1_3  and  C2_6 
    3  A    between atoms: C7_12  and  C8_13 
    4  A    between atoms: N3_16  and  C11_18 
    5  A    between atoms: C11_18  and  C12_19 

>  <TORSDO>
F 5

$$$$
../pdbqt/lig.vina_out.4.pdbqt
 OpenBabel06052021513D

 24 26  0  0  0  0  0  0  0  0999 V2000
  -27.2280   65.2380   25.3990 C   0  0  0  0  0  0  0  0  0  0  0  0
  -28.0670   65.6780   24.3490 C   0  0  0  0  0  0  0  0  0  0  0  0
  -27.5560   66.4660   23.2930 C   0  0  0  0  0  0  0  0  0  0  0  0
  -26.1990   66.8280   23.2670 C   0  0  0  0  0  0  0  0  0  0  0  0
  -25.3910   66.3830   24.3080 C   0  0  0  0  0  0  0  0  0  0  0  0
  -24.0810   66.6140   24.4800 N   0  0  0  0  0  0  0  0  0  0  0  0
  -23.8120   65.9570   25.6380 C   0  0  0  0  0  0  0  0  0  0  0  0
  -24.8890   65.3410   26.1910 N   0  0  0  0  0  0  0  0  0  0  0  0
  -25.8770   65.6230   25.3290 C   0  0  0  0  0  0  0  0  0  0  0  0
  -22.4380   65.9560   26.2630 C   0  0  0  0  0  0  0  0  0  0  0  0
  -22.1440   64.6370   26.9940 C   0  0  0  0  0  0  0  0  0  0  0  0
  -21.7680   63.5090   26.0230 C   0  0  0  0  0  0  0  0  0  0  0  0
  -20.6200   63.8870   25.1670 N   0  0  0  0  0  0  0  0  0  0  0  0
  -19.8120   64.1040   25.7960 H   0  0  0  0  0  0  0  0  0  0  0  0
  -20.9510   65.0870   24.3620 C   0  0  0  0  0  0  0  0  0  0  0  0
  -21.3280   66.2850   25.2500 C   0  0  0  0  0  0  0  0  0  0  0  0
  -20.2670   62.7310   24.3020 C   0  0  0  0  0  0  0  0  0  0  0  0
  -21.2990   62.4140   23.1960 C   0  0  0  0  0  0  0  0  0  0  0  0
  -20.7200   62.4870   21.7850 C   0  0  0  0  0  0  0  0  0  0  0  0
  -27.7710   64.4140   26.5060 C   0  0  0  0  0  0  0  0  0  0  0  0
  -27.2100   64.4260   27.6740 N   0  0  0  0  0  0  0  0  0  0  0  0
  -27.5790   63.8530   28.4650 H   0  0  0  0  0  0  0  0  0  0  0  0
  -28.8970   63.6200   26.2860 O   0  0  0  0  0  0  0  0  0  0  0  0
  -29.5820   63.4560   27.0140 H   0  0  0  0  0  0  0  0  0  0  0  0
  1 20  1  0  0  0  0
  2  1  2  0  0  0  0
  3  2  1  0  0  0  0
  4  3  2  0  0  0  0
  4  5  1  0  0  0  0
  5  6  1  0  0  0  0
  5  9  2  0  0  0  0
  6  7  2  0  0  0  0
  7  8  1  0  0  0  0
  7 10  1  0  0  0  0
  9  1  1  0  0  0  0
  9  8  1  0  0  0  0
 10 11  1  0  0  0  0
 12 11  1  0  0  0  0
 13 14  1  0  0  0  0
 13 12  1  0  0  0  0
 15 13  1  0  0  0  0
 15 16  1  0  0  0  0
 16 10  1  0  0  0  0
 17 13  1  0  0  0  0
 18 17  1  0  0  0  0
 19 18  1  0  0  0  0
 20 21  2  0  0  0  0
 21 22  1  0  0  0  0
 23 20  1  0  0  0  0
 23 24  1  0  0  0  0
M  END
>  <REMARK>
 VINA RESULT:      -7.6      1.784      2.804
  5 active torsions:
  status: ('A' for Active; 'I' for Inactive)
    1  A    between atoms: C1_3  and  O1_4 
    2  A    between atoms: C1_3  and  C2_6 
    3  A    between atoms: C7_12  and  C8_13 
    4  A    between atoms: N3_16  and  C11_18 
    5  A    between atoms: C11_18  and  C12_19 

>  <TORSDO>
F 5

$$$$
../pdbqt/lig.vina_out.4.pdbqt
 OpenBabel06052021513D

 24 26  0  0  0  0  0  0  0  0999 V2000
  -24.3660   66.1430   24.7690 C   0  0  0  0  0  0  0  0  0  0  0  0
  -25.1490   66.9870   23.9470 C   0  0  0  0  0  0  0  0  0  0  0  0
  -26.5570   66.8760   23.9260 C   0  0  0  0  0  0  0  0  0  0  0  0
  -27.2080   65.9220   24.7250 C   0  0  0  0  0  0  0  0  0  0  0  0
  -26.4200   65.1040   25.5280 C   0  0  0  0  0  0  0  0  0  0  0  0
  -26.8310   64.1330   26.3570 N   0  0  0  0  0  0  0  0  0  0  0  0
  -25.6650   63.6700   26.8760 C   0  0  0  0  0  0  0  0  0  0  0  0
  -24.5580   64.2990   26.4030 N   0  0  0  0  0  0  0  0  0  0  0  0
  -25.0610   65.2060   25.5530 C   0  0  0  0  0  0  0  0  0  0  0  0
  -25.6190   62.5270   27.8600 C   0  0  0  0  0  0  0  0  0  0  0  0
  -24.3500   62.5680   28.7250 C   0  0  0  0  0  0  0  0  0  0  0  0
  -24.4490   63.6100   29.8480 C   0  0  0  0  0  0  0  0  0  0  0  0
  -25.6400   63.3840   30.6980 N   0  0  0  0  0  0  0  0  0  0  0  0
  -25.5620   62.4220   31.1060 H   0  0  0  0  0  0  0  0  0  0  0  0
  -26.8770   63.4730   29.8860 C   0  0  0  0  0  0  0  0  0  0  0  0
  -26.8810   62.4510   28.7360 C   0  0  0  0  0  0  0  0  0  0  0  0
  -25.6390   64.3810   31.8010 C   0  0  0  0  0  0  0  0  0  0  0  0
  -24.6270   65.5350   31.6240 C   0  0  0  0  0  0  0  0  0  0  0  0
  -25.1160   66.8650   32.1930 C   0  0  0  0  0  0  0  0  0  0  0  0
  -22.8870   66.2620   24.7840 C   0  0  0  0  0  0  0  0  0  0  0  0
  -22.1400   65.2030   24.8270 N   0  0  0  0  0  0  0  0  0  0  0  0
  -21.0980   65.2680   24.8380 H   0  0  0  0  0  0  0  0  0  0  0  0
  -22.2970   67.5260   24.7520 O   0  0  0  0  0  0  0  0  0  0  0  0
  -22.5300   68.2020   24.0350 H   0  0  0  0  0  0  0  0  0  0  0  0
  1 20  1  0  0  0  0
  1  9  2  0  0  0  0
  2  1  1  0  0  0  0
  3  2  2  0  0  0  0
  3  4  1  0  0  0  0
  4  5  2  0  0  0  0
  5  9  1  0  0  0  0
  5  6  1  0  0  0  0
  6  7  2  0  0  0  0
  7 10  1  0  0  0  0
  8  7  1  0  0  0  0
  9  8  1  0  0  0  0
 10 11  1  0  0  0  0
 10 16  1  0  0  0  0
 11 12  1  0  0  0  0
 12 13  1  0  0  0  0
 13 14  1  0  0  0  0
 13 17  1  0  0  0  0
 15 13  1  0  0  0  0
 16 15  1  0  0  0  0
 18 17  1  0  0  0  0
 18 19  1  0  0  0  0
 20 21  2  0  0  0  0
 21 22  1  0  0  0  0
 23 20  1  0  0  0  0
 24 23  1  0  0  0  0
M  END
>  <REMARK>
 VINA RESULT:      -7.3      3.018      5.129
  5 active torsions:
  status: ('A' for Active; 'I' for Inactive)
    1  A    between atoms: C1_3  and  O1_4 
    2  A    between atoms: C1_3  and  C2_6 
    3  A    between atoms: C7_12  and  C8_13 
    4  A    between atoms: N3_16  and  C11_18 
    5  A    between atoms: C11_18  and  C12_19 

>  <TORSDO>
F 5

$$$$
../pdbqt/lig.vina_out.4.pdbqt
 OpenBabel06052021513D

 24 26  0  0  0  0  0  0  0  0999 V2000
  -27.6140   64.0400   26.9430 C   0  0  0  0  0  0  0  0  0  0  0  0
  -28.6770   64.4320   26.0950 C   0  0  0  0  0  0  0  0  0  0  0  0
  -28.4520   65.3030   25.0050 C   0  0  0  0  0  0  0  0  0  0  0  0
  -27.1640   65.7980   24.7440 C   0  0  0  0  0  0  0  0  0  0  0  0
  -26.1330   65.3990   25.5880 C   0  0  0  0  0  0  0  0  0  0  0  0
  -24.8410   65.7520   25.5220 N   0  0  0  0  0  0  0  0  0  0  0  0
  -24.2960   65.0840   26.5720 C   0  0  0  0  0  0  0  0  0  0  0  0
  -25.1860   64.3470   27.2840 N   0  0  0  0  0  0  0  0  0  0  0  0
  -26.3430   64.5590   26.6400 C   0  0  0  0  0  0  0  0  0  0  0  0
  -22.8330   65.1980   26.9260 C   0  0  0  0  0  0  0  0  0  0  0  0
  -22.2330   63.8390   27.3180 C   0  0  0  0  0  0  0  0  0  0  0  0
  -21.9310   62.9650   26.0940 C   0  0  0  0  0  0  0  0  0  0  0  0
  -21.0400   63.6590   25.1350 N   0  0  0  0  0  0  0  0  0  0  0  0
  -20.1520   63.8940   25.6370 H   0  0  0  0  0  0  0  0  0  0  0  0
  -21.6760   64.9090   24.6540 C   0  0  0  0  0  0  0  0  0  0  0  0
  -22.0060   65.8660   25.8140 C   0  0  0  0  0  0  0  0  0  0  0  0
  -20.7340   62.7370   24.0100 C   0  0  0  0  0  0  0  0  0  0  0  0
  -19.4740   61.8660   24.2170 C   0  0  0  0  0  0  0  0  0  0  0  0
  -18.1810   62.5560   23.7870 C   0  0  0  0  0  0  0  0  0  0  0  0
  -27.8570   63.1280   28.0870 C   0  0  0  0  0  0  0  0  0  0  0  0
  -28.9190   63.2550   28.8190 N   0  0  0  0  0  0  0  0  0  0  0  0
  -29.1060   62.6220   29.6270 H   0  0  0  0  0  0  0  0  0  0  0  0
  -26.9320   62.1250   28.3760 O   0  0  0  0  0  0  0  0  0  0  0  0
  -27.1020   61.4390   29.1020 H   0  0  0  0  0  0  0  0  0  0  0  0
  1 20  1  0  0  0  0
  2  1  2  0  0  0  0
  3  2  1  0  0  0  0
  4  3  2  0  0  0  0
  4  5  1  0  0  0  0
  5  9  2  0  0  0  0
  6  5  1  0  0  0  0
  6  7  2  0  0  0  0
  7 10  1  0  0  0  0
  7  8  1  0  0  0  0
  9  1  1  0  0  0  0
  9  8  1  0  0  0  0
 10 11  1  0  0  0  0
 12 11  1  0  0  0  0
 13 14  1  0  0  0  0
 13 12  1  0  0  0  0
 15 13  1  0  0  0  0
 15 16  1  0  0  0  0
 16 10  1  0  0  0  0
 17 18  1  0  0  0  0
 17 13  1  0  0  0  0
 19 18  1  0  0  0  0
 20 23  1  0  0  0  0
 20 21  2  0  0  0  0
 21 22  1  0  0  0  0
 23 24  1  0  0  0  0
M  END
>  <REMARK>
 VINA RESULT:      -7.2      2.351      3.414
  5 active torsions:
  status: ('A' for Active; 'I' for Inactive)
    1  A    between atoms: C1_3  and  O1_4 
    2  A    between atoms: C1_3  and  C2_6 
    3  A    between atoms: C7_12  and  C8_13 
    4  A    between atoms: N3_16  and  C11_18 
    5  A    between atoms: C11_18  and  C12_19 

>  <TORSDO>
F 5

$$$$
../pdbqt/lig.vina_out.4.pdbqt
 OpenBabel06052021513D

 24 26  0  0  0  0  0  0  0  0999 V2000
  -27.5930   65.6300   24.4920 C   0  0  0  0  0  0  0  0  0  0  0  0
  -27.5250   66.5220   23.3950 C   0  0  0  0  0  0  0  0  0  0  0  0
  -26.3160   67.1770   23.0680 C   0  0  0  0  0  0  0  0  0  0  0  0
  -25.1570   66.9540   23.8280 C   0  0  0  0  0  0  0  0  0  0  0  0
  -25.2450   66.0720   24.9000 C   0  0  0  0  0  0  0  0  0  0  0  0
  -24.2700   65.7210   25.7510 N   0  0  0  0  0  0  0  0  0  0  0  0
  -24.8980   64.8500   26.5820 C   0  0  0  0  0  0  0  0  0  0  0  0
  -26.2100   64.6540   26.2930 N   0  0  0  0  0  0  0  0  0  0  0  0
  -26.4070   65.4360   25.2210 C   0  0  0  0  0  0  0  0  0  0  0  0
  -24.1950   64.1980   27.7480 C   0  0  0  0  0  0  0  0  0  0  0  0
  -23.8590   62.7260   27.4620 C   0  0  0  0  0  0  0  0  0  0  0  0
  -22.6280   62.5790   26.5580 C   0  0  0  0  0  0  0  0  0  0  0  0
  -21.4480   63.2710   27.1260 N   0  0  0  0  0  0  0  0  0  0  0  0
  -21.2560   62.8530   28.0660 H   0  0  0  0  0  0  0  0  0  0  0  0
  -21.7260   64.7190   27.2810 C   0  0  0  0  0  0  0  0  0  0  0  0
  -22.9420   64.9740   28.1890 C   0  0  0  0  0  0  0  0  0  0  0  0
  -20.2790   63.0330   26.2400 C   0  0  0  0  0  0  0  0  0  0  0  0
  -19.6630   64.3110   25.6280 C   0  0  0  0  0  0  0  0  0  0  0  0
  -18.1930   64.5120   25.9930 C   0  0  0  0  0  0  0  0  0  0  0  0
  -28.8650   64.9470   24.8330 C   0  0  0  0  0  0  0  0  0  0  0  0
  -29.8700   64.9760   24.0140 N   0  0  0  0  0  0  0  0  0  0  0  0
  -30.7720   64.5020   24.2380 H   0  0  0  0  0  0  0  0  0  0  0  0
  -28.9790   64.2680   26.0460 O   0  0  0  0  0  0  0  0  0  0  0  0
  -29.8740   64.1440   26.5030 H   0  0  0  0  0  0  0  0  0  0  0  0
  1 20  1  0  0  0  0
  1  9  2  0  0  0  0
  2  1  1  0  0  0  0
  3  2  2  0  0  0  0
  3  4  1  0  0  0  0
  4  5  2  0  0  0  0
  5  9  1  0  0  0  0
  5  6  1  0  0  0  0
  6  7  2  0  0  0  0
  7 10  1  0  0  0  0
  8  7  1  0  0  0  0
  9  8  1  0  0  0  0
 10 16  1  0  0  0  0
 11 10  1  0  0  0  0
 12 13  1  0  0  0  0
 12 11  1  0  0  0  0
 13 15  1  0  0  0  0
 13 14  1  0  0  0  0
 15 16  1  0  0  0  0
 17 13  1  0  0  0  0
 18 19  1  0  0  0  0
 18 17  1  0  0  0  0
 20 23  1  0  0  0  0
 21 22  1  0  0  0  0
 21 20  2  0  0  0  0
 23 24  1  0  0  0  0
M  END
>  <REMARK>
 VINA RESULT:      -7.1      2.092      2.926
  5 active torsions:
  status: ('A' for Active; 'I' for Inactive)
    1  A    between atoms: C1_3  and  O1_4 
    2  A    between atoms: C1_3  and  C2_6 
    3  A    between atoms: C7_12  and  C8_13 
    4  A    between atoms: N3_16  and  C11_18 
    5  A    between atoms: C11_18  and  C12_19 

>  <TORSDO>
F 5

$$$$
