../pdbqt/lig.vina_out.3.pdbqt
 OpenBabel06052021513D

 22 24  0  0  0  0  0  0  0  0999 V2000
  -27.1450   66.1030   23.8350 C   0  0  0  0  0  0  0  0  0  0  0  0
  -28.4990   65.7110   23.7650 C   0  0  0  0  0  0  0  0  0  0  0  0
  -29.0600   64.8810   24.7400 C   0  0  0  0  0  0  0  0  0  0  0  0
  -28.2840   64.4240   25.8050 C   0  0  0  0  0  0  0  0  0  0  0  0
  -26.9420   64.7960   25.8990 C   0  0  0  0  0  0  0  0  0  0  0  0
  -26.1850   64.3570   26.9370 N   0  0  0  0  0  0  0  0  0  0  0  0
  -24.8760   64.6990   27.0530 C   0  0  0  0  0  0  0  0  0  0  0  0
  -24.2820   65.5220   26.0810 C   0  0  0  0  0  0  0  0  0  0  0  0
  -25.0520   65.9680   25.0500 N   0  0  0  0  0  0  0  0  0  0  0  0
  -26.3640   65.6330   24.9210 C   0  0  0  0  0  0  0  0  0  0  0  0
  -22.8570   65.9350   26.1580 C   0  0  0  0  0  0  0  0  0  0  0  0
  -22.0070   65.4570   27.1750 C   0  0  0  0  0  0  0  0  0  0  0  0
  -20.6660   65.8510   27.2220 C   0  0  0  0  0  0  0  0  0  0  0  0
  -20.1550   66.7210   26.2540 C   0  0  0  0  0  0  0  0  0  0  0  0
  -18.4720   67.2120   26.3160 Cl  0  0  0  0  0  0  0  0  0  0  0  0
  -20.9840   67.1930   25.2350 C   0  0  0  0  0  0  0  0  0  0  0  0
  -22.3260   66.8000   25.1830 C   0  0  0  0  0  0  0  0  0  0  0  0
  -26.5780   66.9920   22.7790 C   0  0  0  0  0  0  0  0  0  0  0  0
  -25.9220   68.0600   23.1100 N   0  0  0  0  0  0  0  0  0  0  0  0
  -25.5140   68.6990   22.3930 H   0  0  0  0  0  0  0  0  0  0  0  0
  -26.7450   66.6850   21.4280 O   0  0  0  0  0  0  0  0  0  0  0  0
  -27.5440   67.0160   20.9010 H   0  0  0  0  0  0  0  0  0  0  0  0
  1 10  1  0  0  0  0
  2  1  2  0  0  0  0
  2  3  1  0  0  0  0
  3  4  2  0  0  0  0
  4  5  1  0  0  0  0
  5  6  2  0  0  0  0
  6  7  1  0  0  0  0
  8 11  1  0  0  0  0
  8  7  2  0  0  0  0
  9  8  1  0  0  0  0
 10  9  2  0  0  0  0
 10  5  1  0  0  0  0
 11 12  2  0  0  0  0
 12 13  1  0  0  0  0
 14 15  1  0  0  0  0
 14 13  2  0  0  0  0
 16 14  1  0  0  0  0
 17 16  2  0  0  0  0
 17 11  1  0  0  0  0
 18 19  2  0  0  0  0
 18  1  1  0  0  0  0
 20 19  1  0  0  0  0
 21 18  1  0  0  0  0
 22 21  1  0  0  0  0
M  END
>  <MODEL>
1

>  <REMARK>
 VINA RESULT:      -8.9      0.000      0.000
  3 active torsions:
  status: ('A' for Active; 'I' for Inactive)
    1  A    between atoms: C1_3  and  O1_4 
    2  A    between atoms: C1_3  and  C2_6 
    3  A    between atoms: C8_13  and  C9_14 

>  <TORSDO>
F 3

$$$$
../pdbqt/lig.vina_out.3.pdbqt
 OpenBabel06052021513D

 22 24  0  0  0  0  0  0  0  0999 V2000
  -26.8080   66.2950   24.0060 C   0  0  0  0  0  0  0  0  0  0  0  0
  -28.1790   66.5550   24.2210 C   0  0  0  0  0  0  0  0  0  0  0  0
  -28.8540   66.0010   25.3120 C   0  0  0  0  0  0  0  0  0  0  0  0
  -28.1790   65.1770   26.2130 C   0  0  0  0  0  0  0  0  0  0  0  0
  -26.8240   64.9030   26.0240 C   0  0  0  0  0  0  0  0  0  0  0  0
  -26.1620   64.1050   26.9010 N   0  0  0  0  0  0  0  0  0  0  0  0
  -24.8440   63.8170   26.7430 C   0  0  0  0  0  0  0  0  0  0  0  0
  -24.1430   64.3500   25.6470 C   0  0  0  0  0  0  0  0  0  0  0  0
  -24.8110   65.1590   24.7790 N   0  0  0  0  0  0  0  0  0  0  0  0
  -26.1310   65.4550   24.9260 C   0  0  0  0  0  0  0  0  0  0  0  0
  -22.6990   64.0760   25.4240 C   0  0  0  0  0  0  0  0  0  0  0  0
  -21.8460   65.0450   24.8590 C   0  0  0  0  0  0  0  0  0  0  0  0
  -20.4890   64.7690   24.6670 C   0  0  0  0  0  0  0  0  0  0  0  0
  -19.9650   63.5280   25.0410 C   0  0  0  0  0  0  0  0  0  0  0  0
  -18.2610   63.1860   24.8000 Cl  0  0  0  0  0  0  0  0  0  0  0  0
  -20.7980   62.5650   25.6130 C   0  0  0  0  0  0  0  0  0  0  0  0
  -22.1550   62.8370   25.8080 C   0  0  0  0  0  0  0  0  0  0  0  0
  -26.1160   66.9030   22.8330 C   0  0  0  0  0  0  0  0  0  0  0  0
  -25.0180   67.5720   22.9990 N   0  0  0  0  0  0  0  0  0  0  0  0
  -24.5130   68.0080   22.1960 H   0  0  0  0  0  0  0  0  0  0  0  0
  -26.6380   66.7590   21.5470 O   0  0  0  0  0  0  0  0  0  0  0  0
  -26.7760   67.5540   20.9350 H   0  0  0  0  0  0  0  0  0  0  0  0
  1  2  2  0  0  0  0
  1 10  1  0  0  0  0
  2  3  1  0  0  0  0
  3  4  2  0  0  0  0
  5  4  1  0  0  0  0
  5  6  2  0  0  0  0
  7  6  1  0  0  0  0
  8  7  2  0  0  0  0
  9 10  2  0  0  0  0
  9  8  1  0  0  0  0
 10  5  1  0  0  0  0
 11  8  1  0  0  0  0
 11 17  2  0  0  0  0
 12 11  1  0  0  0  0
 13 12  2  0  0  0  0
 13 14  1  0  0  0  0
 14 16  2  0  0  0  0
 15 14  1  0  0  0  0
 16 17  1  0  0  0  0
 18 19  2  0  0  0  0
 18  1  1  0  0  0  0
 20 19  1  0  0  0  0
 21 18  1  0  0  0  0
 22 21  1  0  0  0  0
M  END
>  <REMARK>
 VINA RESULT:      -8.8      1.903      2.163
  3 active torsions:
  status: ('A' for Active; 'I' for Inactive)
    1  A    between atoms: C1_3  and  O1_4 
    2  A    between atoms: C1_3  and  C2_6 
    3  A    between atoms: C8_13  and  C9_14 

>  <TORSDO>
F 3

$$$$
../pdbqt/lig.vina_out.3.pdbqt
 OpenBabel06052021513D

 22 24  0  0  0  0  0  0  0  0999 V2000
  -27.6430   64.4890   26.1210 C   0  0  0  0  0  0  0  0  0  0  0  0
  -28.9420   64.3740   25.5820 C   0  0  0  0  0  0  0  0  0  0  0  0
  -29.2710   64.9700   24.3620 C   0  0  0  0  0  0  0  0  0  0  0  0
  -28.3130   65.6940   23.6520 C   0  0  0  0  0  0  0  0  0  0  0  0
  -27.0210   65.8250   24.1620 C   0  0  0  0  0  0  0  0  0  0  0  0
  -26.0830   66.5250   23.4720 N   0  0  0  0  0  0  0  0  0  0  0  0
  -24.8190   66.6720   23.9440 C   0  0  0  0  0  0  0  0  0  0  0  0
  -24.4630   66.0930   25.1740 C   0  0  0  0  0  0  0  0  0  0  0  0
  -25.4050   65.3830   25.8540 N   0  0  0  0  0  0  0  0  0  0  0  0
  -26.6760   65.2280   25.3930 C   0  0  0  0  0  0  0  0  0  0  0  0
  -23.0940   66.2150   25.7390 C   0  0  0  0  0  0  0  0  0  0  0  0
  -22.1230   67.0440   25.1420 C   0  0  0  0  0  0  0  0  0  0  0  0
  -20.8440   67.1510   25.6960 C   0  0  0  0  0  0  0  0  0  0  0  0
  -20.5180   66.4380   26.8530 C   0  0  0  0  0  0  0  0  0  0  0  0
  -18.9120   66.5750   27.5460 Cl  0  0  0  0  0  0  0  0  0  0  0  0
  -21.4750   65.6220   27.4610 C   0  0  0  0  0  0  0  0  0  0  0  0
  -22.7560   65.5130   26.9110 C   0  0  0  0  0  0  0  0  0  0  0  0
  -27.3240   63.8380   27.4250 C   0  0  0  0  0  0  0  0  0  0  0  0
  -27.9260   62.7430   27.7710 N   0  0  0  0  0  0  0  0  0  0  0  0
  -27.7220   62.2660   28.6760 H   0  0  0  0  0  0  0  0  0  0  0  0
  -26.3760   64.3960   28.2840 O   0  0  0  0  0  0  0  0  0  0  0  0
  -26.0170   63.8880   29.0840 H   0  0  0  0  0  0  0  0  0  0  0  0
  1 18  1  0  0  0  0
  2  1  1  0  0  0  0
  3  2  2  0  0  0  0
  4  5  2  0  0  0  0
  4  3  1  0  0  0  0
  5 10  1  0  0  0  0
  6  7  2  0  0  0  0
  6  5  1  0  0  0  0
  7  8  1  0  0  0  0
  8 11  1  0  0  0  0
  8  9  2  0  0  0  0
 10  9  1  0  0  0  0
 10  1  2  0  0  0  0
 11 17  2  0  0  0  0
 12 13  2  0  0  0  0
 12 11  1  0  0  0  0
 13 14  1  0  0  0  0
 14 16  2  0  0  0  0
 14 15  1  0  0  0  0
 17 16  1  0  0  0  0
 18 19  2  0  0  0  0
 18 21  1  0  0  0  0
 19 20  1  0  0  0  0
 21 22  1  0  0  0  0
M  END
>  <REMARK>
 VINA RESULT:      -8.2      1.969      3.329
  3 active torsions:
  status: ('A' for Active; 'I' for Inactive)
    1  A    between atoms: C1_3  and  O1_4 
    2  A    between atoms: C1_3  and  C2_6 
    3  A    between atoms: C8_13  and  C9_14 

>  <TORSDO>
F 3

$$$$
../pdbqt/lig.vina_out.3.pdbqt
 OpenBabel06052021513D

 22 24  0  0  0  0  0  0  0  0999 V2000
  -19.9660   63.5180   23.3290 C   0  0  0  0  0  0  0  0  0  0  0  0
  -18.7210   63.8940   22.7800 C   0  0  0  0  0  0  0  0  0  0  0  0
  -18.2420   65.2000   22.9090 C   0  0  0  0  0  0  0  0  0  0  0  0
  -18.9920   66.1610   23.5870 C   0  0  0  0  0  0  0  0  0  0  0  0
  -20.2270   65.8170   24.1390 C   0  0  0  0  0  0  0  0  0  0  0  0
  -20.9580   66.7480   24.8040 N   0  0  0  0  0  0  0  0  0  0  0  0
  -22.1640   66.4450   25.3490 C   0  0  0  0  0  0  0  0  0  0  0  0
  -22.6770   65.1420   25.2240 C   0  0  0  0  0  0  0  0  0  0  0  0
  -21.9320   64.2110   24.5660 N   0  0  0  0  0  0  0  0  0  0  0  0
  -20.7220   64.5020   24.0150 C   0  0  0  0  0  0  0  0  0  0  0  0
  -23.9870   64.7490   25.8040 C   0  0  0  0  0  0  0  0  0  0  0  0
  -25.1680   65.4560   25.5000 C   0  0  0  0  0  0  0  0  0  0  0  0
  -26.3920   65.0630   26.0490 C   0  0  0  0  0  0  0  0  0  0  0  0
  -26.4550   63.9580   26.9030 C   0  0  0  0  0  0  0  0  0  0  0  0
  -27.9930   63.4660   27.5890 Cl  0  0  0  0  0  0  0  0  0  0  0  0
  -25.2950   63.2410   27.2020 C   0  0  0  0  0  0  0  0  0  0  0  0
  -24.0690   63.6310   26.6540 C   0  0  0  0  0  0  0  0  0  0  0  0
  -20.4470   62.1150   23.1750 C   0  0  0  0  0  0  0  0  0  0  0  0
  -19.5990   61.1350   23.1430 N   0  0  0  0  0  0  0  0  0  0  0  0
  -19.9080   60.1440   23.0380 H   0  0  0  0  0  0  0  0  0  0  0  0
  -21.8110   61.8390   23.0660 O   0  0  0  0  0  0  0  0  0  0  0  0
  -22.2370   61.5970   22.1800 H   0  0  0  0  0  0  0  0  0  0  0  0
  1 10  2  0  0  0  0
  2  3  2  0  0  0  0
  2  1  1  0  0  0  0
  3  4  1  0  0  0  0
  4  5  2  0  0  0  0
  5  6  1  0  0  0  0
  6  7  2  0  0  0  0
  8  7  1  0  0  0  0
  8 11  1  0  0  0  0
  9  8  2  0  0  0  0
 10  5  1  0  0  0  0
 10  9  1  0  0  0  0
 11 17  1  0  0  0  0
 12 11  2  0  0  0  0
 12 13  1  0  0  0  0
 13 14  2  0  0  0  0
 14 16  1  0  0  0  0
 14 15  1  0  0  0  0
 17 16  2  0  0  0  0
 18  1  1  0  0  0  0
 19 18  2  0  0  0  0
 20 19  1  0  0  0  0
 21 18  1  0  0  0  0
 22 21  1  0  0  0  0
M  END
>  <REMARK>
 VINA RESULT:      -8.1      4.248      7.005
  3 active torsions:
  status: ('A' for Active; 'I' for Inactive)
    1  A    between atoms: C1_3  and  O1_4 
    2  A    between atoms: C1_3  and  C2_6 
    3  A    between atoms: C8_13  and  C9_14 

>  <TORSDO>
F 3

$$$$
../pdbqt/lig.vina_out.3.pdbqt
 OpenBabel06052021513D

 22 24  0  0  0  0  0  0  0  0999 V2000
  -26.7830   66.2160   24.1960 C   0  0  0  0  0  0  0  0  0  0  0  0
  -28.0450   66.4640   23.6140 C   0  0  0  0  0  0  0  0  0  0  0  0
  -29.1950   65.8280   24.0900 C   0  0  0  0  0  0  0  0  0  0  0  0
  -29.1140   64.9310   25.1550 C   0  0  0  0  0  0  0  0  0  0  0  0
  -27.8780   64.6660   25.7480 C   0  0  0  0  0  0  0  0  0  0  0  0
  -27.7950   63.7970   26.7880 N   0  0  0  0  0  0  0  0  0  0  0  0
  -26.6080   63.5170   27.3840 C   0  0  0  0  0  0  0  0  0  0  0  0
  -25.4330   64.1320   26.9190 C   0  0  0  0  0  0  0  0  0  0  0  0
  -25.5270   65.0120   25.8830 N   0  0  0  0  0  0  0  0  0  0  0  0
  -26.7100   65.3020   25.2770 C   0  0  0  0  0  0  0  0  0  0  0  0
  -24.1060   63.8700   27.5340 C   0  0  0  0  0  0  0  0  0  0  0  0
  -23.9180   63.9280   28.9300 C   0  0  0  0  0  0  0  0  0  0  0  0
  -22.6630   63.6680   29.4870 C   0  0  0  0  0  0  0  0  0  0  0  0
  -21.5820   63.3420   28.6630 C   0  0  0  0  0  0  0  0  0  0  0  0
  -20.0080   63.0150   29.3670 Cl  0  0  0  0  0  0  0  0  0  0  0  0
  -21.7570   63.2700   27.2800 C   0  0  0  0  0  0  0  0  0  0  0  0
  -23.0120   63.5280   26.7180 C   0  0  0  0  0  0  0  0  0  0  0  0
  -25.5760   66.9130   23.6660 C   0  0  0  0  0  0  0  0  0  0  0  0
  -25.6780   68.1080   23.1720 N   0  0  0  0  0  0  0  0  0  0  0  0
  -24.8500   68.6190   22.7950 H   0  0  0  0  0  0  0  0  0  0  0  0
  -24.3260   66.2930   23.6970 O   0  0  0  0  0  0  0  0  0  0  0  0
  -24.0210   65.7500   24.4960 H   0  0  0  0  0  0  0  0  0  0  0  0
  1 10  2  0  0  0  0
  2  3  2  0  0  0  0
  2  1  1  0  0  0  0
  3  4  1  0  0  0  0
  4  5  2  0  0  0  0
  5  6  1  0  0  0  0
  6  7  2  0  0  0  0
  8  7  1  0  0  0  0
  8 11  1  0  0  0  0
  9  8  2  0  0  0  0
 10  5  1  0  0  0  0
 10  9  1  0  0  0  0
 11 12  2  0  0  0  0
 12 13  1  0  0  0  0
 14 15  1  0  0  0  0
 14 13  2  0  0  0  0
 16 14  1  0  0  0  0
 17 16  2  0  0  0  0
 17 11  1  0  0  0  0
 18 21  1  0  0  0  0
 18  1  1  0  0  0  0
 19 18  2  0  0  0  0
 20 19  1  0  0  0  0
 21 22  1  0  0  0  0
M  END
>  <REMARK>
 VINA RESULT:      -8.1      2.450      2.685
  3 active torsions:
  status: ('A' for Active; 'I' for Inactive)
    1  A    between atoms: C1_3  and  O1_4 
    2  A    between atoms: C1_3  and  C2_6 
    3  A    between atoms: C8_13  and  C9_14 

>  <TORSDO>
F 3

$$$$
../pdbqt/lig.vina_out.3.pdbqt
 OpenBabel06052021513D

 22 24  0  0  0  0  0  0  0  0999 V2000
  -20.4480   63.3650   24.5590 C   0  0  0  0  0  0  0  0  0  0  0  0
  -19.0500   63.2700   24.7290 C   0  0  0  0  0  0  0  0  0  0  0  0
  -18.2960   64.3800   25.1210 C   0  0  0  0  0  0  0  0  0  0  0  0
  -18.9170   65.6070   25.3510 C   0  0  0  0  0  0  0  0  0  0  0  0
  -20.2980   65.7290   25.1890 C   0  0  0  0  0  0  0  0  0  0  0  0
  -20.9070   66.9220   25.4160 N   0  0  0  0  0  0  0  0  0  0  0  0
  -22.2480   67.0720   25.2630 C   0  0  0  0  0  0  0  0  0  0  0  0
  -23.0300   65.9770   24.8590 C   0  0  0  0  0  0  0  0  0  0  0  0
  -22.4130   64.7820   24.6440 N   0  0  0  0  0  0  0  0  0  0  0  0
  -21.0710   64.6170   24.7930 C   0  0  0  0  0  0  0  0  0  0  0  0
  -24.5020   66.0790   24.6810 C   0  0  0  0  0  0  0  0  0  0  0  0
  -25.3940   65.3810   25.5200 C   0  0  0  0  0  0  0  0  0  0  0  0
  -26.7750   65.5000   25.3410 C   0  0  0  0  0  0  0  0  0  0  0  0
  -27.2850   66.3180   24.3290 C   0  0  0  0  0  0  0  0  0  0  0  0
  -29.0190   66.4660   24.1080 Cl  0  0  0  0  0  0  0  0  0  0  0  0
  -26.4120   67.0240   23.4980 C   0  0  0  0  0  0  0  0  0  0  0  0
  -25.0290   66.9090   23.6750 C   0  0  0  0  0  0  0  0  0  0  0  0
  -21.2250   62.1610   24.1420 C   0  0  0  0  0  0  0  0  0  0  0  0
  -21.0210   61.0210   24.7250 N   0  0  0  0  0  0  0  0  0  0  0  0
  -21.5500   60.1630   24.4540 H   0  0  0  0  0  0  0  0  0  0  0  0
  -22.1770   62.2470   23.1260 O   0  0  0  0  0  0  0  0  0  0  0  0
  -22.9180   62.9370   23.1460 H   0  0  0  0  0  0  0  0  0  0  0  0
  1  2  2  0  0  0  0
  1 10  1  0  0  0  0
  2  3  1  0  0  0  0
  3  4  2  0  0  0  0
  5  4  1  0  0  0  0
  5  6  2  0  0  0  0
  7  6  1  0  0  0  0
  8  7  2  0  0  0  0
  9 10  2  0  0  0  0
  9  8  1  0  0  0  0
 10  5  1  0  0  0  0
 11  8  1  0  0  0  0
 11 12  2  0  0  0  0
 13 12  1  0  0  0  0
 14 13  2  0  0  0  0
 15 14  1  0  0  0  0
 16 17  2  0  0  0  0
 16 14  1  0  0  0  0
 17 11  1  0  0  0  0
 18  1  1  0  0  0  0
 18 19  2  0  0  0  0
 20 19  1  0  0  0  0
 21 22  1  0  0  0  0
 21 18  1  0  0  0  0
M  END
>  <REMARK>
 VINA RESULT:      -8.0      3.931      6.858
  3 active torsions:
  status: ('A' for Active; 'I' for Inactive)
    1  A    between atoms: C1_3  and  O1_4 
    2  A    between atoms: C1_3  and  C2_6 
    3  A    between atoms: C8_13  and  C9_14 

>  <TORSDO>
F 3

$$$$
../pdbqt/lig.vina_out.3.pdbqt
 OpenBabel06052021513D

 22 24  0  0  0  0  0  0  0  0999 V2000
  -20.3670   63.0750   24.3860 C   0  0  0  0  0  0  0  0  0  0  0  0
  -19.0640   62.7140   24.7910 C   0  0  0  0  0  0  0  0  0  0  0  0
  -18.5240   63.1940   25.9870 C   0  0  0  0  0  0  0  0  0  0  0  0
  -19.2690   64.0420   26.8060 C   0  0  0  0  0  0  0  0  0  0  0  0
  -20.5590   64.4150   26.4290 C   0  0  0  0  0  0  0  0  0  0  0  0
  -21.2900   65.2380   27.2250 N   0  0  0  0  0  0  0  0  0  0  0  0
  -22.5470   65.6210   26.8840 C   0  0  0  0  0  0  0  0  0  0  0  0
  -23.1120   65.1640   25.6810 C   0  0  0  0  0  0  0  0  0  0  0  0
  -22.3770   64.3300   24.8940 N   0  0  0  0  0  0  0  0  0  0  0  0
  -21.1160   63.9390   25.2230 C   0  0  0  0  0  0  0  0  0  0  0  0
  -24.4850   65.5440   25.2570 C   0  0  0  0  0  0  0  0  0  0  0  0
  -24.7050   66.4160   24.1720 C   0  0  0  0  0  0  0  0  0  0  0  0
  -26.0050   66.7520   23.7850 C   0  0  0  0  0  0  0  0  0  0  0  0
  -27.1020   66.2200   24.4700 C   0  0  0  0  0  0  0  0  0  0  0  0
  -28.7330   66.6420   23.9800 Cl  0  0  0  0  0  0  0  0  0  0  0  0
  -26.8970   65.3450   25.5390 C   0  0  0  0  0  0  0  0  0  0  0  0
  -25.5980   65.0050   25.9290 C   0  0  0  0  0  0  0  0  0  0  0  0
  -20.9150   62.5440   23.1040 C   0  0  0  0  0  0  0  0  0  0  0  0
  -20.1570   62.4610   22.0560 N   0  0  0  0  0  0  0  0  0  0  0  0
  -20.5140   62.0930   21.1470 H   0  0  0  0  0  0  0  0  0  0  0  0
  -22.2450   62.1280   23.0180 O   0  0  0  0  0  0  0  0  0  0  0  0
  -22.7450   62.1220   22.1380 H   0  0  0  0  0  0  0  0  0  0  0  0
  1  2  2  0  0  0  0
  1 10  1  0  0  0  0
  2  3  1  0  0  0  0
  3  4  2  0  0  0  0
  5  4  1  0  0  0  0
  5  6  2  0  0  0  0
  7  6  1  0  0  0  0
  8  7  2  0  0  0  0
  9 10  2  0  0  0  0
  9  8  1  0  0  0  0
 10  5  1  0  0  0  0
 11  8  1  0  0  0  0
 11 17  2  0  0  0  0
 12 11  1  0  0  0  0
 13 12  2  0  0  0  0
 13 14  1  0  0  0  0
 14 16  2  0  0  0  0
 15 14  1  0  0  0  0
 16 17  1  0  0  0  0
 18  1  1  0  0  0  0
 19 18  2  0  0  0  0
 20 19  1  0  0  0  0
 21 18  1  0  0  0  0
 22 21  1  0  0  0  0
M  END
>  <REMARK>
 VINA RESULT:      -7.9      4.037      6.729
  3 active torsions:
  status: ('A' for Active; 'I' for Inactive)
    1  A    between atoms: C1_3  and  O1_4 
    2  A    between atoms: C1_3  and  C2_6 
    3  A    between atoms: C8_13  and  C9_14 

>  <TORSDO>
F 3

$$$$
../pdbqt/lig.vina_out.3.pdbqt
 OpenBabel06052021513D

 22 24  0  0  0  0  0  0  0  0999 V2000
  -28.0300   65.2350   25.8630 C   0  0  0  0  0  0  0  0  0  0  0  0
  -28.9280   65.8030   24.9330 C   0  0  0  0  0  0  0  0  0  0  0  0
  -28.4620   66.4510   23.7860 C   0  0  0  0  0  0  0  0  0  0  0  0
  -27.0930   66.5490   23.5400 C   0  0  0  0  0  0  0  0  0  0  0  0
  -26.1830   65.9990   24.4440 C   0  0  0  0  0  0  0  0  0  0  0  0
  -24.8480   66.0880   24.2060 N   0  0  0  0  0  0  0  0  0  0  0  0
  -23.9390   65.5650   25.0670 C   0  0  0  0  0  0  0  0  0  0  0  0
  -24.3780   64.9180   26.2350 C   0  0  0  0  0  0  0  0  0  0  0  0
  -25.7170   64.8220   26.4600 N   0  0  0  0  0  0  0  0  0  0  0  0
  -26.6400   65.3420   25.6050 C   0  0  0  0  0  0  0  0  0  0  0  0
  -23.4310   64.3200   27.2120 C   0  0  0  0  0  0  0  0  0  0  0  0
  -22.1560   63.8650   26.8170 C   0  0  0  0  0  0  0  0  0  0  0  0
  -21.2780   63.3160   27.7550 C   0  0  0  0  0  0  0  0  0  0  0  0
  -21.6540   63.2180   29.0970 C   0  0  0  0  0  0  0  0  0  0  0  0
  -20.5480   62.5290   30.2720 Cl  0  0  0  0  0  0  0  0  0  0  0  0
  -22.9090   63.6750   29.5030 C   0  0  0  0  0  0  0  0  0  0  0  0
  -23.7910   64.2270   28.5690 C   0  0  0  0  0  0  0  0  0  0  0  0
  -28.5600   64.5480   27.0760 C   0  0  0  0  0  0  0  0  0  0  0  0
  -28.3940   63.2710   27.2250 N   0  0  0  0  0  0  0  0  0  0  0  0
  -28.7530   62.7640   28.0640 H   0  0  0  0  0  0  0  0  0  0  0  0
  -29.2370   65.2670   28.0620 O   0  0  0  0  0  0  0  0  0  0  0  0
  -29.2290   64.9780   29.0320 H   0  0  0  0  0  0  0  0  0  0  0  0
  1 18  1  0  0  0  0
  2  1  2  0  0  0  0
  3  2  1  0  0  0  0
  4  3  2  0  0  0  0
  4  5  1  0  0  0  0
  5 10  1  0  0  0  0
  6  5  2  0  0  0  0
  6  7  1  0  0  0  0
  7  8  2  0  0  0  0
  8  9  1  0  0  0  0
  8 11  1  0  0  0  0
 10  1  1  0  0  0  0
 10  9  2  0  0  0  0
 11 17  1  0  0  0  0
 12 11  2  0  0  0  0
 12 13  1  0  0  0  0
 13 14  2  0  0  0  0
 14 16  1  0  0  0  0
 14 15  1  0  0  0  0
 17 16  2  0  0  0  0
 18 19  2  0  0  0  0
 18 21  1  0  0  0  0
 19 20  1  0  0  0  0
 21 22  1  0  0  0  0
M  END
>  <REMARK>
 VINA RESULT:      -7.8      2.712      3.925
  3 active torsions:
  status: ('A' for Active; 'I' for Inactive)
    1  A    between atoms: C1_3  and  O1_4 
    2  A    between atoms: C1_3  and  C2_6 
    3  A    between atoms: C8_13  and  C9_14 

>  <TORSDO>
F 3

$$$$
../pdbqt/lig.vina_out.3.pdbqt
 OpenBabel06052021513D

 22 24  0  0  0  0  0  0  0  0999 V2000
  -26.8540   64.2350   26.7040 C   0  0  0  0  0  0  0  0  0  0  0  0
  -28.2170   64.0250   26.4020 C   0  0  0  0  0  0  0  0  0  0  0  0
  -28.8080   64.6270   25.2870 C   0  0  0  0  0  0  0  0  0  0  0  0
  -28.0560   65.4520   24.4510 C   0  0  0  0  0  0  0  0  0  0  0  0
  -26.7070   65.6770   24.7270 C   0  0  0  0  0  0  0  0  0  0  0  0
  -25.9690   66.4760   23.9120 N   0  0  0  0  0  0  0  0  0  0  0  0
  -24.6550   66.7160   24.1560 C   0  0  0  0  0  0  0  0  0  0  0  0
  -24.0370   66.1330   25.2760 C   0  0  0  0  0  0  0  0  0  0  0  0
  -24.7800   65.3250   26.0810 N   0  0  0  0  0  0  0  0  0  0  0  0
  -26.0980   65.0750   25.8480 C   0  0  0  0  0  0  0  0  0  0  0  0
  -22.6020   66.3550   25.5910 C   0  0  0  0  0  0  0  0  0  0  0  0
  -22.0860   66.1100   26.8800 C   0  0  0  0  0  0  0  0  0  0  0  0
  -20.7300   66.3160   27.1510 C   0  0  0  0  0  0  0  0  0  0  0  0
  -19.8710   66.7620   26.1430 C   0  0  0  0  0  0  0  0  0  0  0  0
  -18.1700   67.0180   26.4870 Cl  0  0  0  0  0  0  0  0  0  0  0  0
  -20.3680   66.9960   24.8590 C   0  0  0  0  0  0  0  0  0  0  0  0
  -21.7230   66.7910   24.5820 C   0  0  0  0  0  0  0  0  0  0  0  0
  -26.2530   63.5750   27.8990 C   0  0  0  0  0  0  0  0  0  0  0  0
  -25.9940   64.2680   28.9630 N   0  0  0  0  0  0  0  0  0  0  0  0
  -25.5740   63.8320   29.8140 H   0  0  0  0  0  0  0  0  0  0  0  0
  -25.9650   62.2090   27.8870 O   0  0  0  0  0  0  0  0  0  0  0  0
  -26.0750   61.6340   28.7130 H   0  0  0  0  0  0  0  0  0  0  0  0
  1 18  1  0  0  0  0
  2  1  1  0  0  0  0
  3  2  2  0  0  0  0
  4  5  2  0  0  0  0
  4  3  1  0  0  0  0
  5 10  1  0  0  0  0
  6  7  2  0  0  0  0
  6  5  1  0  0  0  0
  7  8  1  0  0  0  0
  8 11  1  0  0  0  0
  8  9  2  0  0  0  0
 10  9  1  0  0  0  0
 10  1  2  0  0  0  0
 11 12  2  0  0  0  0
 12 13  1  0  0  0  0
 14 15  1  0  0  0  0
 14 13  2  0  0  0  0
 16 14  1  0  0  0  0
 17 16  2  0  0  0  0
 17 11  1  0  0  0  0
 18 19  2  0  0  0  0
 19 20  1  0  0  0  0
 21 18  1  0  0  0  0
 21 22  1  0  0  0  0
M  END
>  <REMARK>
 VINA RESULT:      -7.6      2.083      3.234
  3 active torsions:
  status: ('A' for Active; 'I' for Inactive)
    1  A    between atoms: C1_3  and  O1_4 
    2  A    between atoms: C1_3  and  C2_6 
    3  A    between atoms: C8_13  and  C9_14 

>  <TORSDO>
F 3

$$$$
