../pdbqt/lig.vina_out.2.pdbqt
 OpenBabel06052021513D

 30 33  0  0  0  0  0  0  0  0999 V2000
  -23.7980   63.5560   26.5870 C   0  0  0  0  0  0  0  0  0  0  0  0
  -23.9740   65.0720   26.7450 C   0  0  0  0  0  0  0  0  0  0  0  0
  -24.7010   65.6340   25.5840 N   0  0  0  0  0  0  0  0  0  0  0  0
  -23.9920   66.3410   24.6420 C   0  0  0  0  0  0  0  0  0  0  0  0
  -24.6200   66.8960   23.5780 N   0  0  0  0  0  0  0  0  0  0  0  0
  -22.7440   66.4880   24.7460 O   0  0  0  0  0  0  0  0  0  0  0  0
  -25.9500   66.7710   23.3830 C   0  0  0  0  0  0  0  0  0  0  0  0
  -26.4720   67.3200   22.3760 O   0  0  0  0  0  0  0  0  0  0  0  0
  -26.7200   66.0280   24.2920 C   0  0  0  0  0  0  0  0  0  0  0  0
  -26.0610   65.4390   25.4070 C   0  0  0  0  0  0  0  0  0  0  0  0
  -28.1110   65.8480   24.1160 C   0  0  0  0  0  0  0  0  0  0  0  0
  -26.8340   64.6540   26.3000 C   0  0  0  0  0  0  0  0  0  0  0  0
  -28.2040   64.4850   26.1060 C   0  0  0  0  0  0  0  0  0  0  0  0
  -28.8410   65.0840   25.0250 C   0  0  0  0  0  0  0  0  0  0  0  0
  -28.7720   66.4040   23.0670 F   0  0  0  0  0  0  0  0  0  0  0  0
  -22.3950   63.2140   26.0630 C   0  0  0  0  0  0  0  0  0  0  0  0
  -22.3590   62.9700   24.5400 C   0  0  0  0  0  0  0  0  0  0  0  0
  -21.3010   63.7270   23.8220 N   0  0  0  0  0  0  0  0  0  0  0  0
  -20.7620   62.9600   22.6700 C   0  0  0  0  0  0  0  0  0  0  0  0
  -19.4860   63.5390   22.1100 C   0  0  0  0  0  0  0  0  0  0  0  0
  -18.7290   64.4300   22.7740 C   0  0  0  0  0  0  0  0  0  0  0  0
  -19.1960   64.9860   24.0960 C   0  0  0  0  0  0  0  0  0  0  0  0
  -20.2150   64.0620   24.7670 C   0  0  0  0  0  0  0  0  0  0  0  0
  -21.7080   64.6260   23.4740 H   0  0  0  0  0  0  0  0  0  0  0  0
  -17.4580   64.9320   22.1810 C   0  0  0  0  0  0  0  0  0  0  0  0
  -16.7320   65.9680   22.8010 C   0  0  0  0  0  0  0  0  0  0  0  0
  -15.5450   66.4410   22.2320 C   0  0  0  0  0  0  0  0  0  0  0  0
  -15.0730   65.8930   21.0380 C   0  0  0  0  0  0  0  0  0  0  0  0
  -15.7880   64.8720   20.4090 C   0  0  0  0  0  0  0  0  0  0  0  0
  -16.9750   64.3950   20.9720 C   0  0  0  0  0  0  0  0  0  0  0  0
  1  2  1  0  0  0  0
  3  2  1  0  0  0  0
  4  6  2  0  0  0  0
  4  3  1  0  0  0  0
  5  4  1  0  0  0  0
  7  5  1  0  0  0  0
  7  9  1  0  0  0  0
  8  7  2  0  0  0  0
  9 10  1  0  0  0  0
 10  3  1  0  0  0  0
 10 12  2  0  0  0  0
 11  9  2  0  0  0  0
 11 14  1  0  0  0  0
 13 12  1  0  0  0  0
 14 13  2  0  0  0  0
 15 11  1  0  0  0  0
 16  1  1  0  0  0  0
 17 16  1  0  0  0  0
 18 17  1  0  0  0  0
 18 23  1  0  0  0  0
 19 18  1  0  0  0  0
 20 19  1  0  0  0  0
 20 21  2  0  0  0  0
 21 22  1  0  0  0  0
 22 23  1  0  0  0  0
 24 18  1  0  0  0  0
 25 21  1  0  0  0  0
 25 26  2  0  0  0  0
 27 26  1  0  0  0  0
 28 27  2  0  0  0  0
 29 30  2  0  0  0  0
 29 28  1  0  0  0  0
 30 25  1  0  0  0  0
M  END
>  <MODEL>
1

>  <REMARK>
 VINA RESULT:      -9.9      0.000      0.000
  6 active torsions:
  status: ('A' for Active; 'I' for Inactive)
    1  A    between atoms: N2_6  and  C3_7 
    2  A    between atoms: C3_7  and  C4_8 
    3  A    between atoms: C4_8  and  C5_9 
    4  A    between atoms: C5_9  and  C6_10 
    5  A    between atoms: C6_10  and  N3_11 
    6  A    between atoms: C9_14  and  C10_15 

>  <TORSDO>
F 6

$$$$
../pdbqt/lig.vina_out.2.pdbqt
 OpenBabel06052021513D

 30 33  0  0  0  0  0  0  0  0999 V2000
  -23.0500   65.0560   24.6840 C   0  0  0  0  0  0  0  0  0  0  0  0
  -23.8200   66.3460   24.9940 C   0  0  0  0  0  0  0  0  0  0  0  0
  -25.2560   66.1830   24.6720 N   0  0  0  0  0  0  0  0  0  0  0  0
  -25.7470   66.7800   23.5350 C   0  0  0  0  0  0  0  0  0  0  0  0
  -27.0600   66.6810   23.2140 N   0  0  0  0  0  0  0  0  0  0  0  0
  -24.9900   67.4300   22.7650 O   0  0  0  0  0  0  0  0  0  0  0  0
  -27.9340   65.9880   23.9750 C   0  0  0  0  0  0  0  0  0  0  0  0
  -29.1430   65.9440   23.6240 O   0  0  0  0  0  0  0  0  0  0  0  0
  -27.4830   65.3260   25.1280 C   0  0  0  0  0  0  0  0  0  0  0  0
  -26.1030   65.4240   25.4620 C   0  0  0  0  0  0  0  0  0  0  0  0
  -28.3560   64.5690   25.9410 C   0  0  0  0  0  0  0  0  0  0  0  0
  -25.6420   64.7200   26.6030 C   0  0  0  0  0  0  0  0  0  0  0  0
  -26.5190   63.9740   27.3890 C   0  0  0  0  0  0  0  0  0  0  0  0
  -27.8690   63.9040   27.0650 C   0  0  0  0  0  0  0  0  0  0  0  0
  -29.6790   64.4620   25.6540 F   0  0  0  0  0  0  0  0  0  0  0  0
  -21.5350   65.3070   24.6700 C   0  0  0  0  0  0  0  0  0  0  0  0
  -20.7130   64.0490   24.3150 C   0  0  0  0  0  0  0  0  0  0  0  0
  -19.6850   64.2630   23.2640 N   0  0  0  0  0  0  0  0  0  0  0  0
  -18.5110   63.3760   23.4560 C   0  0  0  0  0  0  0  0  0  0  0  0
  -17.3190   63.7700   22.6180 C   0  0  0  0  0  0  0  0  0  0  0  0
  -17.1990   64.9740   22.0300 C   0  0  0  0  0  0  0  0  0  0  0  0
  -18.3340   65.9660   22.0960 C   0  0  0  0  0  0  0  0  0  0  0  0
  -19.2650   65.6800   23.2760 C   0  0  0  0  0  0  0  0  0  0  0  0
  -20.1130   64.0670   22.3290 H   0  0  0  0  0  0  0  0  0  0  0  0
  -15.9780   65.3150   21.2490 C   0  0  0  0  0  0  0  0  0  0  0  0
  -15.6380   64.5920   20.0890 C   0  0  0  0  0  0  0  0  0  0  0  0
  -14.4830   64.9120   19.3670 C   0  0  0  0  0  0  0  0  0  0  0  0
  -13.6540   65.9500   19.7960 C   0  0  0  0  0  0  0  0  0  0  0  0
  -13.9740   66.6680   20.9490 C   0  0  0  0  0  0  0  0  0  0  0  0
  -15.1260   66.3530   21.6760 C   0  0  0  0  0  0  0  0  0  0  0  0
  1  2  1  0  0  0  0
  3  2  1  0  0  0  0
  3 10  1  0  0  0  0
  4  3  1  0  0  0  0
  5  4  1  0  0  0  0
  5  7  1  0  0  0  0
  6  4  2  0  0  0  0
  7  9  1  0  0  0  0
  8  7  2  0  0  0  0
  9 10  2  0  0  0  0
  9 11  1  0  0  0  0
 10 12  1  0  0  0  0
 11 14  2  0  0  0  0
 12 13  2  0  0  0  0
 14 13  1  0  0  0  0
 15 11  1  0  0  0  0
 16  1  1  0  0  0  0
 17 16  1  0  0  0  0
 18 23  1  0  0  0  0
 18 19  1  0  0  0  0
 18 17  1  0  0  0  0
 20 19  1  0  0  0  0
 21 22  1  0  0  0  0
 21 20  2  0  0  0  0
 22 23  1  0  0  0  0
 24 18  1  0  0  0  0
 25 30  1  0  0  0  0
 25 21  1  0  0  0  0
 26 25  2  0  0  0  0
 27 28  2  0  0  0  0
 27 26  1  0  0  0  0
 28 29  1  0  0  0  0
 29 30  2  0  0  0  0
M  END
>  <REMARK>
 VINA RESULT:      -9.8      1.520      2.367
  6 active torsions:
  status: ('A' for Active; 'I' for Inactive)
    1  A    between atoms: N2_6  and  C3_7 
    2  A    between atoms: C3_7  and  C4_8 
    3  A    between atoms: C4_8  and  C5_9 
    4  A    between atoms: C5_9  and  C6_10 
    5  A    between atoms: C6_10  and  N3_11 
    6  A    between atoms: C9_14  and  C10_15 

>  <TORSDO>
F 6

$$$$
../pdbqt/lig.vina_out.2.pdbqt
 OpenBabel06052021513D

 30 33  0  0  0  0  0  0  0  0999 V2000
  -23.1100   63.2910   26.2800 C   0  0  0  0  0  0  0  0  0  0  0  0
  -23.7080   64.6050   26.7970 C   0  0  0  0  0  0  0  0  0  0  0  0
  -25.1370   64.7060   26.4260 N   0  0  0  0  0  0  0  0  0  0  0  0
  -26.0620   64.0060   27.1640 C   0  0  0  0  0  0  0  0  0  0  0  0
  -27.3770   64.0480   26.8430 N   0  0  0  0  0  0  0  0  0  0  0  0
  -25.7070   63.3110   28.1540 O   0  0  0  0  0  0  0  0  0  0  0  0
  -27.8420   64.7810   25.8090 C   0  0  0  0  0  0  0  0  0  0  0  0
  -29.0760   64.7680   25.5610 O   0  0  0  0  0  0  0  0  0  0  0  0
  -26.9490   65.5470   25.0430 C   0  0  0  0  0  0  0  0  0  0  0  0
  -25.5680   65.5090   25.3820 C   0  0  0  0  0  0  0  0  0  0  0  0
  -27.3920   66.3490   23.9670 C   0  0  0  0  0  0  0  0  0  0  0  0
  -24.6750   66.3170   24.6330 C   0  0  0  0  0  0  0  0  0  0  0  0
  -25.1330   67.1050   23.5780 C   0  0  0  0  0  0  0  0  0  0  0  0
  -26.4820   67.1170   23.2420 C   0  0  0  0  0  0  0  0  0  0  0  0
  -28.7030   66.4010   23.6130 F   0  0  0  0  0  0  0  0  0  0  0  0
  -22.4780   63.4790   24.8930 C   0  0  0  0  0  0  0  0  0  0  0  0
  -21.3470   64.5290   24.8780 C   0  0  0  0  0  0  0  0  0  0  0  0
  -20.3500   64.3420   23.7920 N   0  0  0  0  0  0  0  0  0  0  0  0
  -19.4150   63.2290   24.0900 C   0  0  0  0  0  0  0  0  0  0  0  0
  -18.2060   63.2040   23.1860 C   0  0  0  0  0  0  0  0  0  0  0  0
  -17.8300   64.2510   22.4320 C   0  0  0  0  0  0  0  0  0  0  0  0
  -18.6900   65.4900   22.3720 C   0  0  0  0  0  0  0  0  0  0  0  0
  -19.6020   65.6010   23.5950 C   0  0  0  0  0  0  0  0  0  0  0  0
  -20.8580   64.1330   22.9010 H   0  0  0  0  0  0  0  0  0  0  0  0
  -16.6030   64.1750   21.5910 C   0  0  0  0  0  0  0  0  0  0  0  0
  -16.5780   64.7330   20.2980 C   0  0  0  0  0  0  0  0  0  0  0  0
  -15.4250   64.6480   19.5110 C   0  0  0  0  0  0  0  0  0  0  0  0
  -14.2880   64.0020   20.0010 C   0  0  0  0  0  0  0  0  0  0  0  0
  -14.3030   63.4370   21.2770 C   0  0  0  0  0  0  0  0  0  0  0  0
  -15.4530   63.5180   22.0690 C   0  0  0  0  0  0  0  0  0  0  0  0
  1  2  1  0  0  0  0
  3  2  1  0  0  0  0
  3  4  1  0  0  0  0
  4  6  2  0  0  0  0
  5  4  1  0  0  0  0
  7  5  1  0  0  0  0
  8  7  2  0  0  0  0
  9 10  1  0  0  0  0
  9  7  1  0  0  0  0
 10  3  1  0  0  0  0
 11  9  2  0  0  0  0
 12 10  2  0  0  0  0
 13 12  1  0  0  0  0
 14 13  2  0  0  0  0
 14 11  1  0  0  0  0
 15 11  1  0  0  0  0
 16  1  1  0  0  0  0
 17 16  1  0  0  0  0
 18 19  1  0  0  0  0
 18 17  1  0  0  0  0
 20 19  1  0  0  0  0
 21 20  2  0  0  0  0
 22 21  1  0  0  0  0
 22 23  1  0  0  0  0
 23 18  1  0  0  0  0
 24 18  1  0  0  0  0
 25 30  1  0  0  0  0
 25 21  1  0  0  0  0
 26 25  2  0  0  0  0
 27 28  2  0  0  0  0
 27 26  1  0  0  0  0
 28 29  1  0  0  0  0
 29 30  2  0  0  0  0
M  END
>  <REMARK>
 VINA RESULT:      -9.3      1.904      2.734
  6 active torsions:
  status: ('A' for Active; 'I' for Inactive)
    1  A    between atoms: N2_6  and  C3_7 
    2  A    between atoms: C3_7  and  C4_8 
    3  A    between atoms: C4_8  and  C5_9 
    4  A    between atoms: C5_9  and  C6_10 
    5  A    between atoms: C6_10  and  N3_11 
    6  A    between atoms: C9_14  and  C10_15 

>  <TORSDO>
F 6

$$$$
../pdbqt/lig.vina_out.2.pdbqt
 OpenBabel06052021513D

 30 33  0  0  0  0  0  0  0  0999 V2000
  -22.2520   63.5200   24.6440 C   0  0  0  0  0  0  0  0  0  0  0  0
  -22.6190   64.6210   25.6470 C   0  0  0  0  0  0  0  0  0  0  0  0
  -24.0870   64.6940   25.8240 N   0  0  0  0  0  0  0  0  0  0  0  0
  -24.7920   65.6290   25.1040 C   0  0  0  0  0  0  0  0  0  0  0  0
  -26.1330   65.7500   25.2550 N   0  0  0  0  0  0  0  0  0  0  0  0
  -24.2090   66.3920   24.2880 O   0  0  0  0  0  0  0  0  0  0  0  0
  -26.8350   64.9600   26.0950 C   0  0  0  0  0  0  0  0  0  0  0  0
  -28.0790   65.1320   26.1930 O   0  0  0  0  0  0  0  0  0  0  0  0
  -26.1740   63.9620   26.8280 C   0  0  0  0  0  0  0  0  0  0  0  0
  -24.7670   63.8290   26.6670 C   0  0  0  0  0  0  0  0  0  0  0  0
  -26.8710   63.0950   27.7010 C   0  0  0  0  0  0  0  0  0  0  0  0
  -24.1090   62.7930   27.3770 C   0  0  0  0  0  0  0  0  0  0  0  0
  -24.8150   61.9460   28.2290 C   0  0  0  0  0  0  0  0  0  0  0  0
  -26.1870   62.0990   28.3950 C   0  0  0  0  0  0  0  0  0  0  0  0
  -28.2130   63.2010   27.8840 F   0  0  0  0  0  0  0  0  0  0  0  0
  -20.7580   63.5660   24.2930 C   0  0  0  0  0  0  0  0  0  0  0  0
  -20.3570   62.5470   23.2040 C   0  0  0  0  0  0  0  0  0  0  0  0
  -19.1070   62.8870   22.4770 N   0  0  0  0  0  0  0  0  0  0  0  0
  -17.9590   63.0480   23.4030 C   0  0  0  0  0  0  0  0  0  0  0  0
  -16.7570   63.6960   22.7590 C   0  0  0  0  0  0  0  0  0  0  0  0
  -16.8180   64.3670   21.5950 C   0  0  0  0  0  0  0  0  0  0  0  0
  -18.1050   64.4050   20.8090 C   0  0  0  0  0  0  0  0  0  0  0  0
  -19.3180   64.1260   21.7000 C   0  0  0  0  0  0  0  0  0  0  0  0
  -18.8940   62.1190   21.7970 H   0  0  0  0  0  0  0  0  0  0  0  0
  -15.6020   65.0180   21.0340 C   0  0  0  0  0  0  0  0  0  0  0  0
  -14.9110   64.4430   19.9490 C   0  0  0  0  0  0  0  0  0  0  0  0
  -13.7630   65.0550   19.4340 C   0  0  0  0  0  0  0  0  0  0  0  0
  -13.2890   66.2410   19.9980 C   0  0  0  0  0  0  0  0  0  0  0  0
  -13.9590   66.8160   21.0790 C   0  0  0  0  0  0  0  0  0  0  0  0
  -15.1070   66.2090   21.5990 C   0  0  0  0  0  0  0  0  0  0  0  0
  1  2  1  0  0  0  0
  2  3  1  0  0  0  0
  3 10  1  0  0  0  0
  4  5  1  0  0  0  0
  4  3  1  0  0  0  0
  5  7  1  0  0  0  0
  6  4  2  0  0  0  0
  7  8  2  0  0  0  0
  7  9  1  0  0  0  0
  9 11  1  0  0  0  0
 10  9  2  0  0  0  0
 10 12  1  0  0  0  0
 11 15  1  0  0  0  0
 11 14  2  0  0  0  0
 12 13  2  0  0  0  0
 13 14  1  0  0  0  0
 16  1  1  0  0  0  0
 17 16  1  0  0  0  0
 18 17  1  0  0  0  0
 18 19  1  0  0  0  0
 20 19  1  0  0  0  0
 21 20  2  0  0  0  0
 22 21  1  0  0  0  0
 22 23  1  0  0  0  0
 23 18  1  0  0  0  0
 24 18  1  0  0  0  0
 25 21  1  0  0  0  0
 25 30  2  0  0  0  0
 26 25  1  0  0  0  0
 27 26  2  0  0  0  0
 27 28  1  0  0  0  0
 28 29  2  0  0  0  0
 29 30  1  0  0  0  0
M  END
>  <REMARK>
 VINA RESULT:      -9.3      2.040      3.229
  6 active torsions:
  status: ('A' for Active; 'I' for Inactive)
    1  A    between atoms: N2_6  and  C3_7 
    2  A    between atoms: C3_7  and  C4_8 
    3  A    between atoms: C4_8  and  C5_9 
    4  A    between atoms: C5_9  and  C6_10 
    5  A    between atoms: C6_10  and  N3_11 
    6  A    between atoms: C9_14  and  C10_15 

>  <TORSDO>
F 6

$$$$
../pdbqt/lig.vina_out.2.pdbqt
 OpenBabel06052021513D

 30 33  0  0  0  0  0  0  0  0999 V2000
  -17.0930   66.5680   22.4960 C   0  0  0  0  0  0  0  0  0  0  0  0
  -16.3090   65.2570   22.6320 C   0  0  0  0  0  0  0  0  0  0  0  0
  -15.3890   65.0800   21.4850 N   0  0  0  0  0  0  0  0  0  0  0  0
  -15.8350   64.3910   20.3820 C   0  0  0  0  0  0  0  0  0  0  0  0
  -15.0200   64.1820   19.3210 N   0  0  0  0  0  0  0  0  0  0  0  0
  -17.0120   63.9400   20.3330 O   0  0  0  0  0  0  0  0  0  0  0  0
  -13.7530   64.6470   19.2870 C   0  0  0  0  0  0  0  0  0  0  0  0
  -13.0450   64.4090   18.2730 O   0  0  0  0  0  0  0  0  0  0  0  0
  -13.2540   65.3900   20.3690 C   0  0  0  0  0  0  0  0  0  0  0  0
  -14.1120   65.6160   21.4810 C   0  0  0  0  0  0  0  0  0  0  0  0
  -11.9430   65.9180   20.3670 C   0  0  0  0  0  0  0  0  0  0  0  0
  -13.6200   66.4030   22.5540 C   0  0  0  0  0  0  0  0  0  0  0  0
  -12.3250   66.9190   22.5300 C   0  0  0  0  0  0  0  0  0  0  0  0
  -11.4890   66.6730   21.4470 C   0  0  0  0  0  0  0  0  0  0  0  0
  -11.0970   65.7140   19.3250 F   0  0  0  0  0  0  0  0  0  0  0  0
  -18.6070   66.3150   22.5500 C   0  0  0  0  0  0  0  0  0  0  0  0
  -19.2080   66.5230   23.9570 C   0  0  0  0  0  0  0  0  0  0  0  0
  -20.6260   66.0970   24.0880 N   0  0  0  0  0  0  0  0  0  0  0  0
  -21.4640   67.1590   24.6980 C   0  0  0  0  0  0  0  0  0  0  0  0
  -22.8220   66.6700   25.1400 C   0  0  0  0  0  0  0  0  0  0  0  0
  -23.1210   65.3670   25.2910 C   0  0  0  0  0  0  0  0  0  0  0  0
  -22.1160   64.3090   24.9050 C   0  0  0  0  0  0  0  0  0  0  0  0
  -20.6900   64.8630   24.8980 C   0  0  0  0  0  0  0  0  0  0  0  0
  -20.9980   65.8720   23.1360 H   0  0  0  0  0  0  0  0  0  0  0  0
  -24.4690   64.9520   25.7690 C   0  0  0  0  0  0  0  0  0  0  0  0
  -25.6310   65.5970   25.3030 C   0  0  0  0  0  0  0  0  0  0  0  0
  -26.8930   65.2090   25.7660 C   0  0  0  0  0  0  0  0  0  0  0  0
  -27.0090   64.1780   26.7000 C   0  0  0  0  0  0  0  0  0  0  0  0
  -25.8650   63.5370   27.1770 C   0  0  0  0  0  0  0  0  0  0  0  0
  -24.6010   63.9210   26.7200 C   0  0  0  0  0  0  0  0  0  0  0  0
  1 16  1  0  0  0  0
  1  2  1  0  0  0  0
  3  2  1  0  0  0  0
  4  3  1  0  0  0  0
  5  4  1  0  0  0  0
  6  4  2  0  0  0  0
  7  5  1  0  0  0  0
  7  9  1  0  0  0  0
  8  7  2  0  0  0  0
  9 10  1  0  0  0  0
 10  3  1  0  0  0  0
 10 12  2  0  0  0  0
 11  9  2  0  0  0  0
 11 14  1  0  0  0  0
 13 12  1  0  0  0  0
 14 13  2  0  0  0  0
 15 11  1  0  0  0  0
 16 17  1  0  0  0  0
 17 18  1  0  0  0  0
 18 19  1  0  0  0  0
 18 23  1  0  0  0  0
 19 20  1  0  0  0  0
 20 21  2  0  0  0  0
 21 25  1  0  0  0  0
 22 21  1  0  0  0  0
 23 22  1  0  0  0  0
 24 18  1  0  0  0  0
 25 30  2  0  0  0  0
 26 27  2  0  0  0  0
 26 25  1  0  0  0  0
 27 28  1  0  0  0  0
 28 29  2  0  0  0  0
 30 29  1  0  0  0  0
M  END
>  <REMARK>
 VINA RESULT:      -9.1      4.950     10.971
  6 active torsions:
  status: ('A' for Active; 'I' for Inactive)
    1  A    between atoms: N2_6  and  C3_7 
    2  A    between atoms: C3_7  and  C4_8 
    3  A    between atoms: C4_8  and  C5_9 
    4  A    between atoms: C5_9  and  C6_10 
    5  A    between atoms: C6_10  and  N3_11 
    6  A    between atoms: C9_14  and  C10_15 

>  <TORSDO>
F 6

$$$$
../pdbqt/lig.vina_out.2.pdbqt
 OpenBabel06052021513D

 30 33  0  0  0  0  0  0  0  0999 V2000
  -24.5980   62.9670   27.3740 C   0  0  0  0  0  0  0  0  0  0  0  0
  -25.4690   64.1500   27.8140 C   0  0  0  0  0  0  0  0  0  0  0  0
  -26.4890   64.4540   26.7850 N   0  0  0  0  0  0  0  0  0  0  0  0
  -27.7720   63.9970   26.9750 C   0  0  0  0  0  0  0  0  0  0  0  0
  -28.7320   64.2290   26.0470 N   0  0  0  0  0  0  0  0  0  0  0  0
  -28.0850   63.3560   28.0140 O   0  0  0  0  0  0  0  0  0  0  0  0
  -28.4850   64.9230   24.9160 C   0  0  0  0  0  0  0  0  0  0  0  0
  -29.4210   65.0940   24.0910 O   0  0  0  0  0  0  0  0  0  0  0  0
  -27.2030   65.4460   24.6860 C   0  0  0  0  0  0  0  0  0  0  0  0
  -26.1950   65.2090   25.6620 C   0  0  0  0  0  0  0  0  0  0  0  0
  -26.9030   66.2000   23.5280 C   0  0  0  0  0  0  0  0  0  0  0  0
  -24.9120   65.7750   25.4480 C   0  0  0  0  0  0  0  0  0  0  0  0
  -24.6390   66.5200   24.3010 C   0  0  0  0  0  0  0  0  0  0  0  0
  -25.6260   66.7260   23.3440 C   0  0  0  0  0  0  0  0  0  0  0  0
  -27.8400   66.4370   22.5740 F   0  0  0  0  0  0  0  0  0  0  0  0
  -23.3350   62.8570   28.2410 C   0  0  0  0  0  0  0  0  0  0  0  0
  -22.3950   64.0740   28.1020 C   0  0  0  0  0  0  0  0  0  0  0  0
  -21.7780   64.2220   26.7580 N   0  0  0  0  0  0  0  0  0  0  0  0
  -20.7970   63.1440   26.4820 C   0  0  0  0  0  0  0  0  0  0  0  0
  -19.9220   63.4220   25.2830 C   0  0  0  0  0  0  0  0  0  0  0  0
  -19.7950   64.6430   24.7340 C   0  0  0  0  0  0  0  0  0  0  0  0
  -20.6320   65.7930   25.2390 C   0  0  0  0  0  0  0  0  0  0  0  0
  -21.1260   65.5450   26.6650 C   0  0  0  0  0  0  0  0  0  0  0  0
  -22.5350   64.1900   26.0350 H   0  0  0  0  0  0  0  0  0  0  0  0
  -18.8840   64.8580   23.5750 C   0  0  0  0  0  0  0  0  0  0  0  0
  -17.9660   63.8640   23.1840 C   0  0  0  0  0  0  0  0  0  0  0  0
  -17.1060   64.0790   22.1020 C   0  0  0  0  0  0  0  0  0  0  0  0
  -17.1470   65.2870   21.4030 C   0  0  0  0  0  0  0  0  0  0  0  0
  -18.0460   66.2840   21.7870 C   0  0  0  0  0  0  0  0  0  0  0  0
  -18.9070   66.0760   22.8680 C   0  0  0  0  0  0  0  0  0  0  0  0
  1  2  1  0  0  0  0
  1 16  1  0  0  0  0
  3  4  1  0  0  0  0
  3  2  1  0  0  0  0
  4  6  2  0  0  0  0
  5  4  1  0  0  0  0
  7  5  1  0  0  0  0
  8  7  2  0  0  0  0
  9  7  1  0  0  0  0
  9 10  2  0  0  0  0
 10  3  1  0  0  0  0
 11  9  1  0  0  0  0
 12 10  1  0  0  0  0
 13 12  2  0  0  0  0
 14 11  2  0  0  0  0
 14 13  1  0  0  0  0
 15 11  1  0  0  0  0
 17 16  1  0  0  0  0
 18 17  1  0  0  0  0
 19 18  1  0  0  0  0
 20 19  1  0  0  0  0
 21 22  1  0  0  0  0
 21 20  2  0  0  0  0
 22 23  1  0  0  0  0
 23 18  1  0  0  0  0
 24 18  1  0  0  0  0
 25 21  1  0  0  0  0
 26 25  1  0  0  0  0
 27 26  2  0  0  0  0
 28 29  2  0  0  0  0
 28 27  1  0  0  0  0
 29 30  1  0  0  0  0
 30 25  2  0  0  0  0
M  END
>  <REMARK>
 VINA RESULT:      -9.1      2.261      3.226
  6 active torsions:
  status: ('A' for Active; 'I' for Inactive)
    1  A    between atoms: N2_6  and  C3_7 
    2  A    between atoms: C3_7  and  C4_8 
    3  A    between atoms: C4_8  and  C5_9 
    4  A    between atoms: C5_9  and  C6_10 
    5  A    between atoms: C6_10  and  N3_11 
    6  A    between atoms: C9_14  and  C10_15 

>  <TORSDO>
F 6

$$$$
../pdbqt/lig.vina_out.2.pdbqt
 OpenBabel06052021513D

 30 33  0  0  0  0  0  0  0  0999 V2000
  -22.5330   63.8000   24.9470 C   0  0  0  0  0  0  0  0  0  0  0  0
  -23.0440   64.9300   25.8490 C   0  0  0  0  0  0  0  0  0  0  0  0
  -24.5170   64.8580   25.9870 N   0  0  0  0  0  0  0  0  0  0  0  0
  -25.0480   64.0610   26.9740 C   0  0  0  0  0  0  0  0  0  0  0  0
  -26.3900   63.9440   27.1200 N   0  0  0  0  0  0  0  0  0  0  0  0
  -24.3010   63.4230   27.7640 O   0  0  0  0  0  0  0  0  0  0  0  0
  -27.2590   64.6060   26.3270 C   0  0  0  0  0  0  0  0  0  0  0  0
  -28.4950   64.4450   26.5110 O   0  0  0  0  0  0  0  0  0  0  0  0
  -26.7740   65.4640   25.3270 C   0  0  0  0  0  0  0  0  0  0  0  0
  -25.3660   65.5930   25.1760 C   0  0  0  0  0  0  0  0  0  0  0  0
  -27.6460   66.1970   24.4890 C   0  0  0  0  0  0  0  0  0  0  0  0
  -24.8790   66.4930   24.1940 C   0  0  0  0  0  0  0  0  0  0  0  0
  -25.7560   67.2100   23.3810 C   0  0  0  0  0  0  0  0  0  0  0  0
  -27.1310   67.0590   23.5230 C   0  0  0  0  0  0  0  0  0  0  0  0
  -28.9950   66.0900   24.6020 F   0  0  0  0  0  0  0  0  0  0  0  0
  -21.0000   63.8120   24.8620 C   0  0  0  0  0  0  0  0  0  0  0  0
  -20.4620   63.3000   23.5080 C   0  0  0  0  0  0  0  0  0  0  0  0
  -19.3000   64.0610   22.9820 N   0  0  0  0  0  0  0  0  0  0  0  0
  -19.2980   64.1040   21.4980 C   0  0  0  0  0  0  0  0  0  0  0  0
  -17.9900   64.5820   20.9140 C   0  0  0  0  0  0  0  0  0  0  0  0
  -16.8460   64.6320   21.6180 C   0  0  0  0  0  0  0  0  0  0  0  0
  -16.8480   64.3090   23.0930 C   0  0  0  0  0  0  0  0  0  0  0  0
  -18.0510   63.4470   23.4790 C   0  0  0  0  0  0  0  0  0  0  0  0
  -19.3420   65.0390   23.3520 H   0  0  0  0  0  0  0  0  0  0  0  0
  -15.5800   65.0760   20.9710 C   0  0  0  0  0  0  0  0  0  0  0  0
  -14.9020   66.2260   21.4230 C   0  0  0  0  0  0  0  0  0  0  0  0
  -13.7200   66.6420   20.8030 C   0  0  0  0  0  0  0  0  0  0  0  0
  -13.2040   65.9220   19.7240 C   0  0  0  0  0  0  0  0  0  0  0  0
  -13.8700   64.7870   19.2610 C   0  0  0  0  0  0  0  0  0  0  0  0
  -15.0530   64.3650   19.8750 C   0  0  0  0  0  0  0  0  0  0  0  0
  1  2  1  0  0  0  0
  2  3  1  0  0  0  0
  3  4  1  0  0  0  0
  4  5  1  0  0  0  0
  4  6  2  0  0  0  0
  7  8  2  0  0  0  0
  7  5  1  0  0  0  0
  9  7  1  0  0  0  0
 10  9  1  0  0  0  0
 10  3  1  0  0  0  0
 11 15  1  0  0  0  0
 11  9  2  0  0  0  0
 12 10  2  0  0  0  0
 13 14  2  0  0  0  0
 13 12  1  0  0  0  0
 14 11  1  0  0  0  0
 16  1  1  0  0  0  0
 17 16  1  0  0  0  0
 18 24  1  0  0  0  0
 18 23  1  0  0  0  0
 18 17  1  0  0  0  0
 19 18  1  0  0  0  0
 20 19  1  0  0  0  0
 20 21  2  0  0  0  0
 21 22  1  0  0  0  0
 22 23  1  0  0  0  0
 25 26  1  0  0  0  0
 25 21  1  0  0  0  0
 27 26  2  0  0  0  0
 28 27  1  0  0  0  0
 29 28  2  0  0  0  0
 29 30  1  0  0  0  0
 30 25  2  0  0  0  0
M  END
>  <REMARK>
 VINA RESULT:      -9.0      1.833      2.800
  6 active torsions:
  status: ('A' for Active; 'I' for Inactive)
    1  A    between atoms: N2_6  and  C3_7 
    2  A    between atoms: C3_7  and  C4_8 
    3  A    between atoms: C4_8  and  C5_9 
    4  A    between atoms: C5_9  and  C6_10 
    5  A    between atoms: C6_10  and  N3_11 
    6  A    between atoms: C9_14  and  C10_15 

>  <TORSDO>
F 6

$$$$
../pdbqt/lig.vina_out.2.pdbqt
 OpenBabel06052021513D

 30 33  0  0  0  0  0  0  0  0999 V2000
  -18.9260   67.4260   25.2100 C   0  0  0  0  0  0  0  0  0  0  0  0
  -18.0220   66.2070   24.9900 C   0  0  0  0  0  0  0  0  0  0  0  0
  -18.4790   65.4260   23.8180 N   0  0  0  0  0  0  0  0  0  0  0  0
  -18.0650   65.8130   22.5660 C   0  0  0  0  0  0  0  0  0  0  0  0
  -18.4790   65.1440   21.4630 N   0  0  0  0  0  0  0  0  0  0  0  0
  -17.2890   66.7960   22.4150 O   0  0  0  0  0  0  0  0  0  0  0  0
  -19.2950   64.0710   21.5380 C   0  0  0  0  0  0  0  0  0  0  0  0
  -19.6500   63.5010   20.4730 O   0  0  0  0  0  0  0  0  0  0  0  0
  -19.7210   63.6070   22.7930 C   0  0  0  0  0  0  0  0  0  0  0  0
  -19.2810   64.3040   23.9530 C   0  0  0  0  0  0  0  0  0  0  0  0
  -20.5540   62.4730   22.9220 C   0  0  0  0  0  0  0  0  0  0  0  0
  -19.6780   63.8070   25.2200 C   0  0  0  0  0  0  0  0  0  0  0  0
  -20.4970   62.6840   25.3260 C   0  0  0  0  0  0  0  0  0  0  0  0
  -20.9380   62.0240   24.1850 C   0  0  0  0  0  0  0  0  0  0  0  0
  -20.9980   61.7900   21.8350 F   0  0  0  0  0  0  0  0  0  0  0  0
  -20.2240   67.3060   24.3990 C   0  0  0  0  0  0  0  0  0  0  0  0
  -21.4920   67.5630   25.2410 C   0  0  0  0  0  0  0  0  0  0  0  0
  -22.2340   66.3350   25.6260 N   0  0  0  0  0  0  0  0  0  0  0  0
  -23.6290   66.3530   25.1200 C   0  0  0  0  0  0  0  0  0  0  0  0
  -24.5070   65.2950   25.7430 C   0  0  0  0  0  0  0  0  0  0  0  0
  -24.1790   64.6380   26.8700 C   0  0  0  0  0  0  0  0  0  0  0  0
  -22.8310   64.8590   27.5120 C   0  0  0  0  0  0  0  0  0  0  0  0
  -22.2240   66.2010   27.0980 C   0  0  0  0  0  0  0  0  0  0  0  0
  -21.7360   65.5030   25.2290 H   0  0  0  0  0  0  0  0  0  0  0  0
  -25.1090   63.6330   27.4550 C   0  0  0  0  0  0  0  0  0  0  0  0
  -26.4990   63.8580   27.4710 C   0  0  0  0  0  0  0  0  0  0  0  0
  -27.3650   62.9140   28.0330 C   0  0  0  0  0  0  0  0  0  0  0  0
  -26.8540   61.7400   28.5900 C   0  0  0  0  0  0  0  0  0  0  0  0
  -25.4780   61.5080   28.5890 C   0  0  0  0  0  0  0  0  0  0  0  0
  -24.6070   62.4480   28.0300 C   0  0  0  0  0  0  0  0  0  0  0  0
  2  1  1  0  0  0  0
  3 10  1  0  0  0  0
  3  2  1  0  0  0  0
  4  3  1  0  0  0  0
  5  7  1  0  0  0  0
  5  4  1  0  0  0  0
  6  4  2  0  0  0  0
  7  9  1  0  0  0  0
  8  7  2  0  0  0  0
  9 11  2  0  0  0  0
  9 10  1  0  0  0  0
 10 12  2  0  0  0  0
 11 14  1  0  0  0  0
 12 13  1  0  0  0  0
 14 13  2  0  0  0  0
 15 11  1  0  0  0  0
 16  1  1  0  0  0  0
 16 17  1  0  0  0  0
 17 18  1  0  0  0  0
 18 23  1  0  0  0  0
 19 18  1  0  0  0  0
 19 20  1  0  0  0  0
 20 21  2  0  0  0  0
 21 25  1  0  0  0  0
 21 22  1  0  0  0  0
 23 22  1  0  0  0  0
 24 18  1  0  0  0  0
 25 26  2  0  0  0  0
 25 30  1  0  0  0  0
 26 27  1  0  0  0  0
 27 28  2  0  0  0  0
 29 28  1  0  0  0  0
 30 29  2  0  0  0  0
M  END
>  <REMARK>
 VINA RESULT:      -8.5      3.304      8.123
  6 active torsions:
  status: ('A' for Active; 'I' for Inactive)
    1  A    between atoms: N2_6  and  C3_7 
    2  A    between atoms: C3_7  and  C4_8 
    3  A    between atoms: C4_8  and  C5_9 
    4  A    between atoms: C5_9  and  C6_10 
    5  A    between atoms: C6_10  and  N3_11 
    6  A    between atoms: C9_14  and  C10_15 

>  <TORSDO>
F 6

$$$$
../pdbqt/lig.vina_out.2.pdbqt
 OpenBabel06052021513D

 30 33  0  0  0  0  0  0  0  0999 V2000
  -21.7490   65.3600   25.2490 C   0  0  0  0  0  0  0  0  0  0  0  0
  -22.6920   64.2450   24.7810 C   0  0  0  0  0  0  0  0  0  0  0  0
  -23.9860   64.3260   25.4960 N   0  0  0  0  0  0  0  0  0  0  0  0
  -24.1260   63.6480   26.6840 C   0  0  0  0  0  0  0  0  0  0  0  0
  -25.3000   63.6720   27.3590 N   0  0  0  0  0  0  0  0  0  0  0  0
  -23.1660   62.9920   27.1720 O   0  0  0  0  0  0  0  0  0  0  0  0
  -26.3710   64.3640   26.9140 C   0  0  0  0  0  0  0  0  0  0  0  0
  -27.4350   64.3360   27.5870 O   0  0  0  0  0  0  0  0  0  0  0  0
  -26.2750   65.1060   25.7260 C   0  0  0  0  0  0  0  0  0  0  0  0
  -25.0410   65.0870   25.0190 C   0  0  0  0  0  0  0  0  0  0  0  0
  -27.3610   65.8660   25.2350 C   0  0  0  0  0  0  0  0  0  0  0  0
  -24.9350   65.8720   23.8430 C   0  0  0  0  0  0  0  0  0  0  0  0
  -26.0160   66.6180   23.3770 C   0  0  0  0  0  0  0  0  0  0  0  0
  -27.2250   66.6110   24.0650 C   0  0  0  0  0  0  0  0  0  0  0  0
  -28.5550   65.8980   25.8820 F   0  0  0  0  0  0  0  0  0  0  0  0
  -20.3030   65.0800   24.8120 C   0  0  0  0  0  0  0  0  0  0  0  0
  -20.1710   63.8330   23.9120 C   0  0  0  0  0  0  0  0  0  0  0  0
  -18.9610   63.8240   23.0500 N   0  0  0  0  0  0  0  0  0  0  0  0
  -17.7190   63.9900   23.8450 C   0  0  0  0  0  0  0  0  0  0  0  0
  -16.5050   64.3030   23.0030 C   0  0  0  0  0  0  0  0  0  0  0  0
  -16.5840   64.7280   21.7290 C   0  0  0  0  0  0  0  0  0  0  0  0
  -17.9230   64.8050   21.0370 C   0  0  0  0  0  0  0  0  0  0  0  0
  -19.0720   64.9000   22.0430 C   0  0  0  0  0  0  0  0  0  0  0  0
  -18.9200   62.9120   22.5370 H   0  0  0  0  0  0  0  0  0  0  0  0
  -15.3490   65.0590   20.9660 C   0  0  0  0  0  0  0  0  0  0  0  0
  -14.8740   64.2010   19.9540 C   0  0  0  0  0  0  0  0  0  0  0  0
  -13.7070   64.5130   19.2490 C   0  0  0  0  0  0  0  0  0  0  0  0
  -12.9990   65.6790   19.5470 C   0  0  0  0  0  0  0  0  0  0  0  0
  -13.4540   66.5330   20.5540 C   0  0  0  0  0  0  0  0  0  0  0  0
  -14.6190   66.2260   21.2630 C   0  0  0  0  0  0  0  0  0  0  0  0
  2  1  1  0  0  0  0
  2  3  1  0  0  0  0
  3  4  1  0  0  0  0
  4  6  2  0  0  0  0
  4  5  1  0  0  0  0
  7  5  1  0  0  0  0
  7  8  2  0  0  0  0
  9  7  1  0  0  0  0
 10  3  1  0  0  0  0
 10  9  2  0  0  0  0
 11  9  1  0  0  0  0
 11 15  1  0  0  0  0
 12 10  1  0  0  0  0
 13 12  2  0  0  0  0
 13 14  1  0  0  0  0
 14 11  2  0  0  0  0
 16  1  1  0  0  0  0
 17 16  1  0  0  0  0
 18 19  1  0  0  0  0
 18 17  1  0  0  0  0
 20 19  1  0  0  0  0
 21 20  2  0  0  0  0
 22 21  1  0  0  0  0
 22 23  1  0  0  0  0
 23 18  1  0  0  0  0
 24 18  1  0  0  0  0
 25 30  1  0  0  0  0
 25 21  1  0  0  0  0
 26 25  2  0  0  0  0
 27 28  2  0  0  0  0
 27 26  1  0  0  0  0
 28 29  1  0  0  0  0
 29 30  2  0  0  0  0
M  END
>  <REMARK>
 VINA RESULT:      -8.3      2.000      3.249
  6 active torsions:
  status: ('A' for Active; 'I' for Inactive)
    1  A    between atoms: N2_6  and  C3_7 
    2  A    between atoms: C3_7  and  C4_8 
    3  A    between atoms: C4_8  and  C5_9 
    4  A    between atoms: C5_9  and  C6_10 
    5  A    between atoms: C6_10  and  N3_11 
    6  A    between atoms: C9_14  and  C10_15 

>  <TORSDO>
F 6

$$$$
