../pdbqt/lig.vina_out.1.pdbqt
 OpenBabel06052021513D

 29 32  0  0  0  0  0  0  0  0999 V2000
  -20.9920   64.8650   24.4070 C   0  0  0  0  0  0  0  0  0  0  0  0
  -21.5600   66.2410   24.8020 C   0  0  0  0  0  0  0  0  0  0  0  0
  -22.6170   66.1030   25.9020 C   0  0  0  0  0  0  0  0  0  0  0  0
  -23.9910   66.1060   25.3110 C   0  0  0  0  0  0  0  0  0  0  0  0
  -24.2200   66.7210   24.1200 N   0  0  0  0  0  0  0  0  0  0  0  0
  -25.4480   66.7100   23.5430 C   0  0  0  0  0  0  0  0  0  0  0  0
  -26.5110   66.0420   24.1760 C   0  0  0  0  0  0  0  0  0  0  0  0
  -25.6170   67.2990   22.4410 O   0  0  0  0  0  0  0  0  0  0  0  0
  -27.8020   65.9960   23.6240 C   0  0  0  0  0  0  0  0  0  0  0  0
  -26.2520   65.3970   25.4060 C   0  0  0  0  0  0  0  0  0  0  0  0
  -28.8240   65.3140   24.2900 C   0  0  0  0  0  0  0  0  0  0  0  0
  -28.5680   64.6750   25.5050 C   0  0  0  0  0  0  0  0  0  0  0  0
  -27.2850   64.7090   26.0750 C   0  0  0  0  0  0  0  0  0  0  0  0
  -27.0230   64.0150   27.3840 C   0  0  0  0  0  0  0  0  0  0  0  0
  -25.0000   65.4440   25.9360 N   0  0  0  0  0  0  0  0  0  0  0  0
  -19.9140   64.9670   23.3900 N   0  0  0  0  0  0  0  0  0  0  0  0
  -18.9090   63.9050   23.6220 C   0  0  0  0  0  0  0  0  0  0  0  0
  -17.6870   64.0580   22.7510 C   0  0  0  0  0  0  0  0  0  0  0  0
  -17.3510   65.2220   22.1700 C   0  0  0  0  0  0  0  0  0  0  0  0
  -18.2560   66.4260   22.2790 C   0  0  0  0  0  0  0  0  0  0  0  0
  -19.2590   66.2920   23.4300 C   0  0  0  0  0  0  0  0  0  0  0  0
  -20.3290   64.8160   22.4390 H   0  0  0  0  0  0  0  0  0  0  0  0
  -16.1400   65.2980   21.3140 C   0  0  0  0  0  0  0  0  0  0  0  0
  -15.9890   64.4370   20.2100 C   0  0  0  0  0  0  0  0  0  0  0  0
  -14.8520   64.5160   19.4000 C   0  0  0  0  0  0  0  0  0  0  0  0
  -13.8550   65.4520   19.6830 C   0  0  0  0  0  0  0  0  0  0  0  0
  -12.7520   65.5260   18.8970 F   0  0  0  0  0  0  0  0  0  0  0  0
  -13.9920   66.3090   20.7770 C   0  0  0  0  0  0  0  0  0  0  0  0
  -15.1280   66.2350   21.5900 C   0  0  0  0  0  0  0  0  0  0  0  0
  1  2  1  0  0  0  0
  2  3  1  0  0  0  0
  4  3  1  0  0  0  0
  4 15  1  0  0  0  0
  5  4  2  0  0  0  0
  6  5  1  0  0  0  0
  6  7  1  0  0  0  0
  7 10  1  0  0  0  0
  8  6  2  0  0  0  0
  9  7  2  0  0  0  0
  9 11  1  0  0  0  0
 10 15  1  0  0  0  0
 10 13  2  0  0  0  0
 11 12  2  0  0  0  0
 12 13  1  0  0  0  0
 13 14  1  0  0  0  0
 16 21  1  0  0  0  0
 16 17  1  0  0  0  0
 16  1  1  0  0  0  0
 18 17  1  0  0  0  0
 19 20  1  0  0  0  0
 19 18  2  0  0  0  0
 20 21  1  0  0  0  0
 22 16  1  0  0  0  0
 23 29  1  0  0  0  0
 23 19  1  0  0  0  0
 24 23  2  0  0  0  0
 25 26  2  0  0  0  0
 25 24  1  0  0  0  0
 26 28  1  0  0  0  0
 27 26  1  0  0  0  0
 28 29  2  0  0  0  0
M  END
>  <MODEL>
1

>  <REMARK>
 VINA RESULT:     -10.8      0.000      0.000
  5 active torsions:
  status: ('A' for Active; 'I' for Inactive)
    1  A    between atoms: C8_10  and  C9_11 
    2  A    between atoms: C9_11  and  C10_12 
    3  A    between atoms: C10_12  and  C11_13 
    4  A    between atoms: C11_13  and  N2_14 
    5  A    between atoms: C14_17  and  C15_18 

>  <TORSDO>
F 5

$$$$
../pdbqt/lig.vina_out.1.pdbqt
 OpenBabel06052021513D

 29 32  0  0  0  0  0  0  0  0999 V2000
  -21.5110   63.7310   25.4220 C   0  0  0  0  0  0  0  0  0  0  0  0
  -22.1720   65.1190   25.5320 C   0  0  0  0  0  0  0  0  0  0  0  0
  -23.0370   65.2140   26.7930 C   0  0  0  0  0  0  0  0  0  0  0  0
  -24.4840   65.0490   26.4470 C   0  0  0  0  0  0  0  0  0  0  0  0
  -25.2690   64.2150   27.1790 N   0  0  0  0  0  0  0  0  0  0  0  0
  -26.5920   64.0720   26.9110 C   0  0  0  0  0  0  0  0  0  0  0  0
  -27.1750   64.8060   25.8640 C   0  0  0  0  0  0  0  0  0  0  0  0
  -27.2810   63.2820   27.6110 O   0  0  0  0  0  0  0  0  0  0  0  0
  -28.5380   64.7000   25.5420 C   0  0  0  0  0  0  0  0  0  0  0  0
  -26.3470   65.6780   25.1210 C   0  0  0  0  0  0  0  0  0  0  0  0
  -29.0710   65.4540   24.4940 C   0  0  0  0  0  0  0  0  0  0  0  0
  -28.2540   66.3180   23.7610 C   0  0  0  0  0  0  0  0  0  0  0  0
  -26.8890   66.4390   24.0660 C   0  0  0  0  0  0  0  0  0  0  0  0
  -26.0190   67.3740   23.2690 C   0  0  0  0  0  0  0  0  0  0  0  0
  -25.0280   65.7780   25.4370 N   0  0  0  0  0  0  0  0  0  0  0  0
  -20.4870   63.6760   24.3470 N   0  0  0  0  0  0  0  0  0  0  0  0
  -19.2740   62.9910   24.8500 C   0  0  0  0  0  0  0  0  0  0  0  0
  -18.1200   63.0620   23.8830 C   0  0  0  0  0  0  0  0  0  0  0  0
  -18.0460   63.9840   22.9070 C   0  0  0  0  0  0  0  0  0  0  0  0
  -19.1900   64.9400   22.6640 C   0  0  0  0  0  0  0  0  0  0  0  0
  -20.1330   65.0300   23.8690 C   0  0  0  0  0  0  0  0  0  0  0  0
  -20.8650   63.1150   23.5460 H   0  0  0  0  0  0  0  0  0  0  0  0
  -16.8850   63.9890   21.9810 C   0  0  0  0  0  0  0  0  0  0  0  0
  -15.6960   63.3170   22.3220 C   0  0  0  0  0  0  0  0  0  0  0  0
  -14.6060   63.3170   21.4450 C   0  0  0  0  0  0  0  0  0  0  0  0
  -14.6920   63.9850   20.2220 C   0  0  0  0  0  0  0  0  0  0  0  0
  -13.6350   63.9840   19.3730 F   0  0  0  0  0  0  0  0  0  0  0  0
  -15.8660   64.6560   19.8730 C   0  0  0  0  0  0  0  0  0  0  0  0
  -16.9590   64.6590   20.7470 C   0  0  0  0  0  0  0  0  0  0  0  0
  1  2  1  0  0  0  0
  2  3  1  0  0  0  0
  4  3  1  0  0  0  0
  4  5  2  0  0  0  0
  6  5  1  0  0  0  0
  6  8  2  0  0  0  0
  7  6  1  0  0  0  0
  9  7  1  0  0  0  0
 10 15  1  0  0  0  0
 10  7  2  0  0  0  0
 11  9  2  0  0  0  0
 12 13  2  0  0  0  0
 12 11  1  0  0  0  0
 13 10  1  0  0  0  0
 14 13  1  0  0  0  0
 15  4  1  0  0  0  0
 16 17  1  0  0  0  0
 16  1  1  0  0  0  0
 18 17  1  0  0  0  0
 19 18  2  0  0  0  0
 20 19  1  0  0  0  0
 20 21  1  0  0  0  0
 21 16  1  0  0  0  0
 22 16  1  0  0  0  0
 23 24  1  0  0  0  0
 23 19  1  0  0  0  0
 25 24  2  0  0  0  0
 26 25  1  0  0  0  0
 27 26  1  0  0  0  0
 28 26  2  0  0  0  0
 28 29  1  0  0  0  0
 29 23  2  0  0  0  0
M  END
>  <REMARK>
 VINA RESULT:      -9.7      1.810      2.641
  5 active torsions:
  status: ('A' for Active; 'I' for Inactive)
    1  A    between atoms: C8_10  and  C9_11 
    2  A    between atoms: C9_11  and  C10_12 
    3  A    between atoms: C10_12  and  C11_13 
    4  A    between atoms: C11_13  and  N2_14 
    5  A    between atoms: C14_17  and  C15_18 

>  <TORSDO>
F 5

$$$$
../pdbqt/lig.vina_out.1.pdbqt
 OpenBabel06052021513D

 29 32  0  0  0  0  0  0  0  0999 V2000
  -20.7040   63.2020   26.9930 C   0  0  0  0  0  0  0  0  0  0  0  0
  -19.9380   62.7880   25.7220 C   0  0  0  0  0  0  0  0  0  0  0  0
  -18.4650   63.2010   25.8090 C   0  0  0  0  0  0  0  0  0  0  0  0
  -18.0080   63.7880   24.5110 C   0  0  0  0  0  0  0  0  0  0  0  0
  -18.5630   64.9400   24.0500 N   0  0  0  0  0  0  0  0  0  0  0  0
  -18.1440   65.5140   22.8940 C   0  0  0  0  0  0  0  0  0  0  0  0
  -17.1080   64.9180   22.1550 C   0  0  0  0  0  0  0  0  0  0  0  0
  -18.6910   66.5790   22.5010 O   0  0  0  0  0  0  0  0  0  0  0  0
  -16.6330   65.4680   20.9520 C   0  0  0  0  0  0  0  0  0  0  0  0
  -16.5340   63.7270   22.6550 C   0  0  0  0  0  0  0  0  0  0  0  0
  -15.5970   64.8400   20.2560 C   0  0  0  0  0  0  0  0  0  0  0  0
  -15.0280   63.6640   20.7500 C   0  0  0  0  0  0  0  0  0  0  0  0
  -15.4870   63.0970   21.9500 C   0  0  0  0  0  0  0  0  0  0  0  0
  -14.8650   61.8310   22.4730 C   0  0  0  0  0  0  0  0  0  0  0  0
  -16.9970   63.1990   23.8190 N   0  0  0  0  0  0  0  0  0  0  0  0
  -21.9230   63.9930   26.6860 N   0  0  0  0  0  0  0  0  0  0  0  0
  -23.1240   63.1460   26.8680 C   0  0  0  0  0  0  0  0  0  0  0  0
  -24.3890   63.8160   26.3950 C   0  0  0  0  0  0  0  0  0  0  0  0
  -24.3850   64.8440   25.5280 C   0  0  0  0  0  0  0  0  0  0  0  0
  -23.0830   65.4530   25.0640 C   0  0  0  0  0  0  0  0  0  0  0  0
  -21.8900   64.5220   25.3060 C   0  0  0  0  0  0  0  0  0  0  0  0
  -21.9880   64.7930   27.3610 H   0  0  0  0  0  0  0  0  0  0  0  0
  -25.6680   65.4650   25.1130 C   0  0  0  0  0  0  0  0  0  0  0  0
  -26.8780   65.0840   25.7240 C   0  0  0  0  0  0  0  0  0  0  0  0
  -28.0840   65.6760   25.3370 C   0  0  0  0  0  0  0  0  0  0  0  0
  -28.0960   66.6520   24.3380 C   0  0  0  0  0  0  0  0  0  0  0  0
  -29.2670   67.2250   23.9640 F   0  0  0  0  0  0  0  0  0  0  0  0
  -26.9020   67.0370   23.7230 C   0  0  0  0  0  0  0  0  0  0  0  0
  -25.6930   66.4480   24.1070 C   0  0  0  0  0  0  0  0  0  0  0  0
  2  3  1  0  0  0  0
  2  1  1  0  0  0  0
  4  3  1  0  0  0  0
  5  4  2  0  0  0  0
  6  5  1  0  0  0  0
  7 10  1  0  0  0  0
  7  6  1  0  0  0  0
  8  6  2  0  0  0  0
  9  7  2  0  0  0  0
 10 15  1  0  0  0  0
 11 12  2  0  0  0  0
 11  9  1  0  0  0  0
 12 13  1  0  0  0  0
 13 14  1  0  0  0  0
 13 10  2  0  0  0  0
 15  4  1  0  0  0  0
 16 17  1  0  0  0  0
 16  1  1  0  0  0  0
 16 22  1  0  0  0  0
 18 17  1  0  0  0  0
 19 18  2  0  0  0  0
 20 21  1  0  0  0  0
 20 19  1  0  0  0  0
 21 16  1  0  0  0  0
 23 19  1  0  0  0  0
 23 24  2  0  0  0  0
 25 24  1  0  0  0  0
 26 25  2  0  0  0  0
 27 26  1  0  0  0  0
 28 29  2  0  0  0  0
 28 26  1  0  0  0  0
 29 23  1  0  0  0  0
M  END
>  <REMARK>
 VINA RESULT:      -9.6      4.005     10.118
  5 active torsions:
  status: ('A' for Active; 'I' for Inactive)
    1  A    between atoms: C8_10  and  C9_11 
    2  A    between atoms: C9_11  and  C10_12 
    3  A    between atoms: C10_12  and  C11_13 
    4  A    between atoms: C11_13  and  N2_14 
    5  A    between atoms: C14_17  and  C15_18 

>  <TORSDO>
F 5

$$$$
../pdbqt/lig.vina_out.1.pdbqt
 OpenBabel06052021513D

 29 32  0  0  0  0  0  0  0  0999 V2000
  -19.4510   65.5180   25.5650 C   0  0  0  0  0  0  0  0  0  0  0  0
  -18.8580   66.3050   24.3800 C   0  0  0  0  0  0  0  0  0  0  0  0
  -17.3260   66.2910   24.4250 C   0  0  0  0  0  0  0  0  0  0  0  0
  -16.7690   65.8460   23.1090 C   0  0  0  0  0  0  0  0  0  0  0  0
  -17.5170   65.0730   22.2780 N   0  0  0  0  0  0  0  0  0  0  0  0
  -17.0510   64.6840   21.0640 C   0  0  0  0  0  0  0  0  0  0  0  0
  -15.7730   65.0900   20.6440 C   0  0  0  0  0  0  0  0  0  0  0  0
  -17.7760   63.9620   20.3280 O   0  0  0  0  0  0  0  0  0  0  0  0
  -15.2390   64.7190   19.3990 C   0  0  0  0  0  0  0  0  0  0  0  0
  -15.0140   65.9040   21.5160 C   0  0  0  0  0  0  0  0  0  0  0  0
  -13.9650   65.1530   19.0250 C   0  0  0  0  0  0  0  0  0  0  0  0
  -13.2150   65.9590   19.8850 C   0  0  0  0  0  0  0  0  0  0  0  0
  -13.7290   66.3420   21.1340 C   0  0  0  0  0  0  0  0  0  0  0  0
  -12.9110   67.2110   22.0510 C   0  0  0  0  0  0  0  0  0  0  0  0
  -15.5350   66.2610   22.7200 N   0  0  0  0  0  0  0  0  0  0  0  0
  -20.9270   65.6560   25.6540 N   0  0  0  0  0  0  0  0  0  0  0  0
  -21.5700   64.3730   25.2870 C   0  0  0  0  0  0  0  0  0  0  0  0
  -23.0690   64.4840   25.1690 C   0  0  0  0  0  0  0  0  0  0  0  0
  -23.6970   65.6570   24.9810 C   0  0  0  0  0  0  0  0  0  0  0  0
  -22.9230   66.9540   24.9890 C   0  0  0  0  0  0  0  0  0  0  0  0
  -21.4220   66.7330   24.7690 C   0  0  0  0  0  0  0  0  0  0  0  0
  -21.1880   65.8760   26.6450 H   0  0  0  0  0  0  0  0  0  0  0  0
  -25.1780   65.6950   24.8850 C   0  0  0  0  0  0  0  0  0  0  0  0
  -25.9750   65.0830   25.8720 C   0  0  0  0  0  0  0  0  0  0  0  0
  -27.3700   65.1270   25.7830 C   0  0  0  0  0  0  0  0  0  0  0  0
  -27.9830   65.7790   24.7110 C   0  0  0  0  0  0  0  0  0  0  0  0
  -29.3360   65.8200   24.6270 F   0  0  0  0  0  0  0  0  0  0  0  0
  -27.2030   66.3870   23.7250 C   0  0  0  0  0  0  0  0  0  0  0  0
  -25.8080   66.3470   23.8100 C   0  0  0  0  0  0  0  0  0  0  0  0
  1 16  1  0  0  0  0
  2  3  1  0  0  0  0
  2  1  1  0  0  0  0
  4  3  1  0  0  0  0
  5  4  2  0  0  0  0
  6  5  1  0  0  0  0
  7  6  1  0  0  0  0
  7 10  2  0  0  0  0
  8  6  2  0  0  0  0
  9  7  1  0  0  0  0
 10 15  1  0  0  0  0
 11  9  2  0  0  0  0
 11 12  1  0  0  0  0
 12 13  2  0  0  0  0
 13 10  1  0  0  0  0
 13 14  1  0  0  0  0
 15  4  1  0  0  0  0
 16 22  1  0  0  0  0
 17 16  1  0  0  0  0
 18 17  1  0  0  0  0
 19 20  1  0  0  0  0
 19 18  2  0  0  0  0
 21 20  1  0  0  0  0
 21 16  1  0  0  0  0
 23 19  1  0  0  0  0
 23 24  2  0  0  0  0
 25 24  1  0  0  0  0
 26 25  2  0  0  0  0
 27 26  1  0  0  0  0
 28 29  2  0  0  0  0
 28 26  1  0  0  0  0
 29 23  1  0  0  0  0
M  END
>  <REMARK>
 VINA RESULT:      -9.5      4.025     10.721
  5 active torsions:
  status: ('A' for Active; 'I' for Inactive)
    1  A    between atoms: C8_10  and  C9_11 
    2  A    between atoms: C9_11  and  C10_12 
    3  A    between atoms: C10_12  and  C11_13 
    4  A    between atoms: C11_13  and  N2_14 
    5  A    between atoms: C14_17  and  C15_18 

>  <TORSDO>
F 5

$$$$
../pdbqt/lig.vina_out.1.pdbqt
 OpenBabel06052021513D

 29 32  0  0  0  0  0  0  0  0999 V2000
  -20.7220   65.7280   26.4330 C   0  0  0  0  0  0  0  0  0  0  0  0
  -19.9390   64.4550   26.8090 C   0  0  0  0  0  0  0  0  0  0  0  0
  -20.0880   63.3810   25.7270 C   0  0  0  0  0  0  0  0  0  0  0  0
  -19.3680   63.7910   24.4800 C   0  0  0  0  0  0  0  0  0  0  0  0
  -19.9090   63.5230   23.2620 N   0  0  0  0  0  0  0  0  0  0  0  0
  -19.2970   63.9140   22.1150 C   0  0  0  0  0  0  0  0  0  0  0  0
  -18.0830   64.6200   22.1780 C   0  0  0  0  0  0  0  0  0  0  0  0
  -19.8300   63.6390   21.0070 O   0  0  0  0  0  0  0  0  0  0  0  0
  -17.4060   65.0500   21.0250 C   0  0  0  0  0  0  0  0  0  0  0  0
  -17.5420   64.9010   23.4530 C   0  0  0  0  0  0  0  0  0  0  0  0
  -16.2040   65.7530   21.1400 C   0  0  0  0  0  0  0  0  0  0  0  0
  -15.6690   66.0330   22.4000 C   0  0  0  0  0  0  0  0  0  0  0  0
  -16.3290   65.6120   23.5650 C   0  0  0  0  0  0  0  0  0  0  0  0
  -15.7440   65.9200   24.9170 C   0  0  0  0  0  0  0  0  0  0  0  0
  -18.2020   64.4820   24.5660 N   0  0  0  0  0  0  0  0  0  0  0  0
  -22.1040   65.4290   25.9790 N   0  0  0  0  0  0  0  0  0  0  0  0
  -22.5750   66.5050   25.0770 C   0  0  0  0  0  0  0  0  0  0  0  0
  -24.0350   66.3740   24.7250 C   0  0  0  0  0  0  0  0  0  0  0  0
  -24.8980   65.6540   25.4620 C   0  0  0  0  0  0  0  0  0  0  0  0
  -24.4130   64.8430   26.6410 C   0  0  0  0  0  0  0  0  0  0  0  0
  -23.0310   65.2960   27.1240 C   0  0  0  0  0  0  0  0  0  0  0  0
  -22.0960   64.5330   25.4350 H   0  0  0  0  0  0  0  0  0  0  0  0
  -26.3210   65.5580   25.0500 C   0  0  0  0  0  0  0  0  0  0  0  0
  -27.2600   64.9000   25.8690 C   0  0  0  0  0  0  0  0  0  0  0  0
  -28.6010   64.8170   25.4830 C   0  0  0  0  0  0  0  0  0  0  0  0
  -29.0190   65.3870   24.2780 C   0  0  0  0  0  0  0  0  0  0  0  0
  -30.3210   65.3050   23.9050 F   0  0  0  0  0  0  0  0  0  0  0  0
  -28.0980   66.0400   23.4570 C   0  0  0  0  0  0  0  0  0  0  0  0
  -26.7550   66.1270   23.8390 C   0  0  0  0  0  0  0  0  0  0  0  0
  1  2  1  0  0  0  0
  3  2  1  0  0  0  0
  4 15  1  0  0  0  0
  4  3  1  0  0  0  0
  5  4  2  0  0  0  0
  6  7  1  0  0  0  0
  6  5  1  0  0  0  0
  7 10  2  0  0  0  0
  8  6  2  0  0  0  0
  9 11  2  0  0  0  0
  9  7  1  0  0  0  0
 10 13  1  0  0  0  0
 10 15  1  0  0  0  0
 11 12  1  0  0  0  0
 12 13  2  0  0  0  0
 13 14  1  0  0  0  0
 16  1  1  0  0  0  0
 16 21  1  0  0  0  0
 17 16  1  0  0  0  0
 18 17  1  0  0  0  0
 18 19  2  0  0  0  0
 19 20  1  0  0  0  0
 20 21  1  0  0  0  0
 22 16  1  0  0  0  0
 23 19  1  0  0  0  0
 23 24  2  0  0  0  0
 25 24  1  0  0  0  0
 26 25  2  0  0  0  0
 27 26  1  0  0  0  0
 28 29  2  0  0  0  0
 28 26  1  0  0  0  0
 29 23  1  0  0  0  0
M  END
>  <REMARK>
 VINA RESULT:      -9.5      4.005      9.981
  5 active torsions:
  status: ('A' for Active; 'I' for Inactive)
    1  A    between atoms: C8_10  and  C9_11 
    2  A    between atoms: C9_11  and  C10_12 
    3  A    between atoms: C10_12  and  C11_13 
    4  A    between atoms: C11_13  and  N2_14 
    5  A    between atoms: C14_17  and  C15_18 

>  <TORSDO>
F 5

$$$$
../pdbqt/lig.vina_out.1.pdbqt
 OpenBabel06052021513D

 29 32  0  0  0  0  0  0  0  0999 V2000
  -20.7640   66.3850   26.7870 C   0  0  0  0  0  0  0  0  0  0  0  0
  -20.3830   65.1100   27.5640 C   0  0  0  0  0  0  0  0  0  0  0  0
  -19.0340   64.5610   27.0880 C   0  0  0  0  0  0  0  0  0  0  0  0
  -18.9840   64.5210   25.5930 C   0  0  0  0  0  0  0  0  0  0  0  0
  -18.0110   65.1950   24.9250 N   0  0  0  0  0  0  0  0  0  0  0  0
  -17.9190   65.1490   23.5720 C   0  0  0  0  0  0  0  0  0  0  0  0
  -18.8380   64.3810   22.8360 C   0  0  0  0  0  0  0  0  0  0  0  0
  -17.0050   65.7950   22.9930 O   0  0  0  0  0  0  0  0  0  0  0  0
  -18.7910   64.2950   21.4350 C   0  0  0  0  0  0  0  0  0  0  0  0
  -19.8360   63.6760   23.5480 C   0  0  0  0  0  0  0  0  0  0  0  0
  -19.7250   63.5140   20.7500 C   0  0  0  0  0  0  0  0  0  0  0  0
  -20.7100   62.8150   21.4520 C   0  0  0  0  0  0  0  0  0  0  0  0
  -20.7760   62.8880   22.8520 C   0  0  0  0  0  0  0  0  0  0  0  0
  -21.8410   62.1290   23.5970 C   0  0  0  0  0  0  0  0  0  0  0  0
  -19.8770   63.7630   24.9040 N   0  0  0  0  0  0  0  0  0  0  0  0
  -22.2080   66.4280   26.4430 N   0  0  0  0  0  0  0  0  0  0  0  0
  -22.8960   65.2570   27.0340 C   0  0  0  0  0  0  0  0  0  0  0  0
  -24.3250   65.1250   26.5720 C   0  0  0  0  0  0  0  0  0  0  0  0
  -24.7840   65.7120   25.4540 C   0  0  0  0  0  0  0  0  0  0  0  0
  -23.8980   66.6350   24.6500 C   0  0  0  0  0  0  0  0  0  0  0  0
  -22.4130   66.4410   24.9790 C   0  0  0  0  0  0  0  0  0  0  0  0
  -22.6310   67.2930   26.8590 H   0  0  0  0  0  0  0  0  0  0  0  0
  -26.2080   65.5500   25.0650 C   0  0  0  0  0  0  0  0  0  0  0  0
  -26.6680   66.0270   23.8220 C   0  0  0  0  0  0  0  0  0  0  0  0
  -28.0070   65.8660   23.4540 C   0  0  0  0  0  0  0  0  0  0  0  0
  -28.9000   65.2320   24.3200 C   0  0  0  0  0  0  0  0  0  0  0  0
  -30.1990   65.0780   23.9610 F   0  0  0  0  0  0  0  0  0  0  0  0
  -28.4560   64.7570   25.5560 C   0  0  0  0  0  0  0  0  0  0  0  0
  -27.1170   64.9140   25.9290 C   0  0  0  0  0  0  0  0  0  0  0  0
  1  2  1  0  0  0  0
  3  2  1  0  0  0  0
  4  3  1  0  0  0  0
  5  4  2  0  0  0  0
  6  5  1  0  0  0  0
  7 10  2  0  0  0  0
  7  6  1  0  0  0  0
  8  6  2  0  0  0  0
  9  7  1  0  0  0  0
 10 15  1  0  0  0  0
 11  9  2  0  0  0  0
 11 12  1  0  0  0  0
 12 13  2  0  0  0  0
 13 10  1  0  0  0  0
 13 14  1  0  0  0  0
 15  4  1  0  0  0  0
 16  1  1  0  0  0  0
 16 22  1  0  0  0  0
 16 17  1  0  0  0  0
 18 17  1  0  0  0  0
 19 18  2  0  0  0  0
 20 21  1  0  0  0  0
 20 19  1  0  0  0  0
 21 16  1  0  0  0  0
 23 19  1  0  0  0  0
 23 29  2  0  0  0  0
 24 23  1  0  0  0  0
 25 24  2  0  0  0  0
 25 26  1  0  0  0  0
 26 28  2  0  0  0  0
 27 26  1  0  0  0  0
 28 29  1  0  0  0  0
M  END
>  <REMARK>
 VINA RESULT:      -9.5      4.453      9.232
  5 active torsions:
  status: ('A' for Active; 'I' for Inactive)
    1  A    between atoms: C8_10  and  C9_11 
    2  A    between atoms: C9_11  and  C10_12 
    3  A    between atoms: C10_12  and  C11_13 
    4  A    between atoms: C11_13  and  N2_14 
    5  A    between atoms: C14_17  and  C15_18 

>  <TORSDO>
F 5

$$$$
../pdbqt/lig.vina_out.1.pdbqt
 OpenBabel06052021513D

 29 32  0  0  0  0  0  0  0  0999 V2000
  -20.4130   65.4570   26.3780 C   0  0  0  0  0  0  0  0  0  0  0  0
  -19.5750   66.1250   25.2710 C   0  0  0  0  0  0  0  0  0  0  0  0
  -18.1020   66.2220   25.6810 C   0  0  0  0  0  0  0  0  0  0  0  0
  -17.2140   66.0580   24.4870 C   0  0  0  0  0  0  0  0  0  0  0  0
  -15.9070   66.4240   24.5540 N   0  0  0  0  0  0  0  0  0  0  0  0
  -15.0700   66.2540   23.4990 C   0  0  0  0  0  0  0  0  0  0  0  0
  -15.5530   65.6800   22.3110 C   0  0  0  0  0  0  0  0  0  0  0  0
  -13.8660   66.6140   23.6030 O   0  0  0  0  0  0  0  0  0  0  0  0
  -14.7330   65.4800   21.1880 C   0  0  0  0  0  0  0  0  0  0  0  0
  -16.9120   65.2950   22.2630 C   0  0  0  0  0  0  0  0  0  0  0  0
  -15.2600   64.9000   20.0310 C   0  0  0  0  0  0  0  0  0  0  0  0
  -16.6020   64.5170   19.9830 C   0  0  0  0  0  0  0  0  0  0  0  0
  -17.4400   64.7090   21.0940 C   0  0  0  0  0  0  0  0  0  0  0  0
  -18.8840   64.2900   21.0300 C   0  0  0  0  0  0  0  0  0  0  0  0
  -17.7020   65.4910   23.3530 N   0  0  0  0  0  0  0  0  0  0  0  0
  -21.8700   65.6760   26.1940 N   0  0  0  0  0  0  0  0  0  0  0  0
  -22.5890   64.3900   26.3440 C   0  0  0  0  0  0  0  0  0  0  0  0
  -24.0500   64.4920   25.9850 C   0  0  0  0  0  0  0  0  0  0  0  0
  -24.5410   65.4800   25.2180 C   0  0  0  0  0  0  0  0  0  0  0  0
  -23.6530   66.6130   24.7610 C   0  0  0  0  0  0  0  0  0  0  0  0
  -22.1650   66.2610   24.8690 C   0  0  0  0  0  0  0  0  0  0  0  0
  -22.2130   66.3260   26.9420 H   0  0  0  0  0  0  0  0  0  0  0  0
  -25.9940   65.5270   24.9130 C   0  0  0  0  0  0  0  0  0  0  0  0
  -26.9340   65.0260   25.8340 C   0  0  0  0  0  0  0  0  0  0  0  0
  -28.3020   65.0780   25.5480 C   0  0  0  0  0  0  0  0  0  0  0  0
  -28.7450   65.6280   24.3430 C   0  0  0  0  0  0  0  0  0  0  0  0
  -30.0720   65.6770   24.0680 F   0  0  0  0  0  0  0  0  0  0  0  0
  -27.8220   66.1260   23.4210 C   0  0  0  0  0  0  0  0  0  0  0  0
  -26.4520   66.0770   23.7020 C   0  0  0  0  0  0  0  0  0  0  0  0
  2  3  1  0  0  0  0
  2  1  1  0  0  0  0
  4  5  2  0  0  0  0
  4  3  1  0  0  0  0
  6  8  2  0  0  0  0
  6  5  1  0  0  0  0
  7  6  1  0  0  0  0
  9  7  2  0  0  0  0
 10  7  1  0  0  0  0
 10 15  1  0  0  0  0
 11  9  1  0  0  0  0
 12 11  2  0  0  0  0
 12 13  1  0  0  0  0
 13 10  2  0  0  0  0
 14 13  1  0  0  0  0
 15  4  1  0  0  0  0
 16 17  1  0  0  0  0
 16  1  1  0  0  0  0
 16 22  1  0  0  0  0
 18 17  1  0  0  0  0
 19 18  2  0  0  0  0
 20 21  1  0  0  0  0
 20 19  1  0  0  0  0
 21 16  1  0  0  0  0
 23 19  1  0  0  0  0
 23 24  2  0  0  0  0
 25 24  1  0  0  0  0
 26 25  2  0  0  0  0
 27 26  1  0  0  0  0
 28 29  2  0  0  0  0
 28 26  1  0  0  0  0
 29 23  1  0  0  0  0
M  END
>  <REMARK>
 VINA RESULT:      -9.3      4.403     10.400
  5 active torsions:
  status: ('A' for Active; 'I' for Inactive)
    1  A    between atoms: C8_10  and  C9_11 
    2  A    between atoms: C9_11  and  C10_12 
    3  A    between atoms: C10_12  and  C11_13 
    4  A    between atoms: C11_13  and  N2_14 
    5  A    between atoms: C14_17  and  C15_18 

>  <TORSDO>
F 5

$$$$
../pdbqt/lig.vina_out.1.pdbqt
 OpenBabel06052021513D

 29 32  0  0  0  0  0  0  0  0999 V2000
  -20.8940   64.0410   24.2860 C   0  0  0  0  0  0  0  0  0  0  0  0
  -20.5290   63.0330   25.3930 C   0  0  0  0  0  0  0  0  0  0  0  0
  -21.0430   63.5080   26.7560 C   0  0  0  0  0  0  0  0  0  0  0  0
  -22.5390   63.5260   26.7750 C   0  0  0  0  0  0  0  0  0  0  0  0
  -23.2230   62.6240   27.5270 N   0  0  0  0  0  0  0  0  0  0  0  0
  -24.5790   62.6390   27.5910 C   0  0  0  0  0  0  0  0  0  0  0  0
  -25.3000   63.6100   26.8750 C   0  0  0  0  0  0  0  0  0  0  0  0
  -25.1720   61.7790   28.2970 O   0  0  0  0  0  0  0  0  0  0  0  0
  -26.7030   63.6740   26.9040 C   0  0  0  0  0  0  0  0  0  0  0  0
  -24.5720   64.5470   26.1080 C   0  0  0  0  0  0  0  0  0  0  0  0
  -27.3740   64.6610   26.1790 C   0  0  0  0  0  0  0  0  0  0  0  0
  -26.6560   65.5900   25.4220 C   0  0  0  0  0  0  0  0  0  0  0  0
  -25.2530   65.5440   25.3780 C   0  0  0  0  0  0  0  0  0  0  0  0
  -24.4910   66.5500   24.5600 C   0  0  0  0  0  0  0  0  0  0  0  0
  -23.2140   64.4810   26.0830 N   0  0  0  0  0  0  0  0  0  0  0  0
  -19.8010   64.2150   23.2960 N   0  0  0  0  0  0  0  0  0  0  0  0
  -18.6280   63.4080   23.7030 C   0  0  0  0  0  0  0  0  0  0  0  0
  -17.4100   63.6770   22.8560 C   0  0  0  0  0  0  0  0  0  0  0  0
  -17.2660   64.7980   22.1270 C   0  0  0  0  0  0  0  0  0  0  0  0
  -18.3870   65.8080   22.0410 C   0  0  0  0  0  0  0  0  0  0  0  0
  -19.4090   65.6350   23.1700 C   0  0  0  0  0  0  0  0  0  0  0  0
  -20.1260   63.8620   22.3640 H   0  0  0  0  0  0  0  0  0  0  0  0
  -16.0460   64.9940   21.3050 C   0  0  0  0  0  0  0  0  0  0  0  0
  -15.2010   66.0970   21.5320 C   0  0  0  0  0  0  0  0  0  0  0  0
  -14.0480   66.2750   20.7610 C   0  0  0  0  0  0  0  0  0  0  0  0
  -13.7270   65.3580   19.7580 C   0  0  0  0  0  0  0  0  0  0  0  0
  -12.6080   65.5320   19.0120 F   0  0  0  0  0  0  0  0  0  0  0  0
  -14.5590   64.2610   19.5230 C   0  0  0  0  0  0  0  0  0  0  0  0
  -15.7130   64.0770   20.2910 C   0  0  0  0  0  0  0  0  0  0  0  0
  1  2  1  0  0  0  0
  2  3  1  0  0  0  0
  3  4  1  0  0  0  0
  4  5  2  0  0  0  0
  5  6  1  0  0  0  0
  6  8  2  0  0  0  0
  7  9  1  0  0  0  0
  7  6  1  0  0  0  0
 10  7  2  0  0  0  0
 11  9  2  0  0  0  0
 12 11  1  0  0  0  0
 13 12  2  0  0  0  0
 13 10  1  0  0  0  0
 14 13  1  0  0  0  0
 15 10  1  0  0  0  0
 15  4  1  0  0  0  0
 16 17  1  0  0  0  0
 16  1  1  0  0  0  0
 18 17  1  0  0  0  0
 19 18  2  0  0  0  0
 20 19  1  0  0  0  0
 20 21  1  0  0  0  0
 21 16  1  0  0  0  0
 22 16  1  0  0  0  0
 23 24  1  0  0  0  0
 23 19  1  0  0  0  0
 25 24  2  0  0  0  0
 26 25  1  0  0  0  0
 27 26  1  0  0  0  0
 28 26  2  0  0  0  0
 28 29  1  0  0  0  0
 29 23  2  0  0  0  0
M  END
>  <REMARK>
 VINA RESULT:      -9.0      2.096      3.072
  5 active torsions:
  status: ('A' for Active; 'I' for Inactive)
    1  A    between atoms: C8_10  and  C9_11 
    2  A    between atoms: C9_11  and  C10_12 
    3  A    between atoms: C10_12  and  C11_13 
    4  A    between atoms: C11_13  and  N2_14 
    5  A    between atoms: C14_17  and  C15_18 

>  <TORSDO>
F 5

$$$$
../pdbqt/lig.vina_out.1.pdbqt
 OpenBabel06052021513D

 29 32  0  0  0  0  0  0  0  0999 V2000
  -18.6430   67.4600   26.2480 C   0  0  0  0  0  0  0  0  0  0  0  0
  -17.8100   66.2130   26.6040 C   0  0  0  0  0  0  0  0  0  0  0  0
  -16.8520   65.8500   25.4650 C   0  0  0  0  0  0  0  0  0  0  0  0
  -17.6100   65.2880   24.3030 C   0  0  0  0  0  0  0  0  0  0  0  0
  -17.2790   65.6480   23.0350 N   0  0  0  0  0  0  0  0  0  0  0  0
  -17.9260   65.1280   21.9600 C   0  0  0  0  0  0  0  0  0  0  0  0
  -18.9530   64.1880   22.1520 C   0  0  0  0  0  0  0  0  0  0  0  0
  -17.5900   65.4950   20.8020 O   0  0  0  0  0  0  0  0  0  0  0  0
  -19.6550   63.6160   21.0790 C   0  0  0  0  0  0  0  0  0  0  0  0
  -19.2750   63.8160   23.4770 C   0  0  0  0  0  0  0  0  0  0  0  0
  -20.6660   62.6830   21.3210 C   0  0  0  0  0  0  0  0  0  0  0  0
  -20.9840   62.3130   22.6300 C   0  0  0  0  0  0  0  0  0  0  0  0
  -20.2950   62.8720   23.7180 C   0  0  0  0  0  0  0  0  0  0  0  0
  -20.6460   62.4640   25.1230 C   0  0  0  0  0  0  0  0  0  0  0  0
  -18.5920   64.3730   24.5130 N   0  0  0  0  0  0  0  0  0  0  0  0
  -20.1040   67.1990   26.3040 N   0  0  0  0  0  0  0  0  0  0  0  0
  -20.3620   65.9860   27.1130 C   0  0  0  0  0  0  0  0  0  0  0  0
  -21.8030   65.5450   27.0610 C   0  0  0  0  0  0  0  0  0  0  0  0
  -22.6430   65.9230   26.0820 C   0  0  0  0  0  0  0  0  0  0  0  0
  -22.2000   66.9090   25.0270 C   0  0  0  0  0  0  0  0  0  0  0  0
  -20.6740   67.0280   24.9510 C   0  0  0  0  0  0  0  0  0  0  0  0
  -20.5750   68.0080   26.7780 H   0  0  0  0  0  0  0  0  0  0  0  0
  -24.0540   65.4610   26.0990 C   0  0  0  0  0  0  0  0  0  0  0  0
  -24.4800   64.4980   27.0350 C   0  0  0  0  0  0  0  0  0  0  0  0
  -25.8110   64.0710   27.0550 C   0  0  0  0  0  0  0  0  0  0  0  0
  -26.7290   64.5980   26.1440 C   0  0  0  0  0  0  0  0  0  0  0  0
  -28.0200   64.1820   26.1640 F   0  0  0  0  0  0  0  0  0  0  0  0
  -26.3180   65.5520   25.2100 C   0  0  0  0  0  0  0  0  0  0  0  0
  -24.9880   65.9840   25.1860 C   0  0  0  0  0  0  0  0  0  0  0  0
  1 16  1  0  0  0  0
  1  2  1  0  0  0  0
  3  2  1  0  0  0  0
  4 15  1  0  0  0  0
  4  3  1  0  0  0  0
  5  4  2  0  0  0  0
  6  7  1  0  0  0  0
  6  5  1  0  0  0  0
  7 10  2  0  0  0  0
  8  6  2  0  0  0  0
  9 11  2  0  0  0  0
  9  7  1  0  0  0  0
 10 13  1  0  0  0  0
 10 15  1  0  0  0  0
 11 12  1  0  0  0  0
 12 13  2  0  0  0  0
 13 14  1  0  0  0  0
 16 22  1  0  0  0  0
 16 17  1  0  0  0  0
 18 17  1  0  0  0  0
 19 23  1  0  0  0  0
 19 18  2  0  0  0  0
 20 19  1  0  0  0  0
 21 20  1  0  0  0  0
 21 16  1  0  0  0  0
 23 24  2  0  0  0  0
 24 25  1  0  0  0  0
 26 27  1  0  0  0  0
 26 25  2  0  0  0  0
 28 26  1  0  0  0  0
 29 28  2  0  0  0  0
 29 23  1  0  0  0  0
M  END
>  <REMARK>
 VINA RESULT:      -9.0      4.332      8.653
  5 active torsions:
  status: ('A' for Active; 'I' for Inactive)
    1  A    between atoms: C8_10  and  C9_11 
    2  A    between atoms: C9_11  and  C10_12 
    3  A    between atoms: C10_12  and  C11_13 
    4  A    between atoms: C11_13  and  N2_14 
    5  A    between atoms: C14_17  and  C15_18 

>  <TORSDO>
F 5

$$$$
