MODEL 1
REMARK VINA RESULT:      -5.3      0.000      0.000
REMARK  4 active torsions:
REMARK  status: ('A' for Active; 'I' for Inactive)
REMARK    1  A    between atoms: O1_1  and  C1_2 
REMARK    2  A    between atoms: C1_2  and  C2_3 
REMARK    3  A    between atoms: C2_3  and  C3_4 
REMARK    4  A    between atoms: C3_4  and  O2_5 
ROOT
HETATM    1  C2  UNL     1     -20.086  63.122  23.040  1.00  0.00     0.192 C 
HETATM    2  C4  UNL     1     -21.395  62.507  22.563  1.00  0.00     0.214 C 
HETATM    3  O3  UNL     1     -22.255  62.456  23.669  1.00  0.00    -0.352 OA
HETATM    4  C5  UNL     1     -21.814  63.448  24.578  1.00  0.00     0.227 C 
HETATM    5  C6  UNL     1     -21.743  62.838  25.983  1.00  0.00     0.069 C 
HETATM    6  C7  UNL     1     -23.164  62.908  26.533  1.00  0.00     0.005 C 
HETATM    7  C8  UNL     1     -23.901  63.970  25.718  1.00  0.00     0.005 C 
HETATM    8  C9  UNL     1     -22.897  64.523  24.714  1.00  0.00     0.069 C 
HETATM    9  N1  UNL     1     -20.515  64.004  24.128  1.00  0.00    -0.028 N 
HETATM   10  H17 UNL     1     -20.649  64.979  23.770  1.00  0.00     0.282 HD
HETATM   11  H18 UNL     1     -19.804  64.052  24.895  1.00  0.00     0.282 HD
ENDROOT
BRANCH   1  12
HETATM   12  C1  UNL     1     -19.401  63.919  21.894  1.00  0.00     0.207 C 
BRANCH  12  13
HETATM   13  O1  UNL     1     -19.600  63.295  20.653  1.00  0.00    -0.398 OA
HETATM   14  H1  UNL     1     -18.708  63.009  20.328  1.00  0.00     0.209 HD
ENDBRANCH  12  13
ENDBRANCH   1  12
BRANCH   1  15
HETATM   15  C3  UNL     1     -19.129  62.017  23.579  1.00  0.00     0.207 C 
BRANCH  15  16
HETATM   16  O2  UNL     1     -19.557  60.736  23.186  1.00  0.00    -0.398 OA
HETATM   17  H6  UNL     1     -20.302  60.477  23.788  1.00  0.00     0.209 HD
ENDBRANCH  15  16
ENDBRANCH   1  15
TORSDOF 4
ENDMDL
MODEL 2
REMARK VINA RESULT:      -5.2      2.534      4.615
REMARK  4 active torsions:
REMARK  status: ('A' for Active; 'I' for Inactive)
REMARK    1  A    between atoms: O1_1  and  C1_2 
REMARK    2  A    between atoms: C1_2  and  C2_3 
REMARK    3  A    between atoms: C2_3  and  C3_4 
REMARK    4  A    between atoms: C3_4  and  O2_5 
ROOT
HETATM    1  C2  UNL     1     -19.860  63.027  22.876  1.00  0.00     0.192 C 
HETATM    2  C4  UNL     1     -20.141  64.266  23.715  1.00  0.00     0.214 C 
HETATM    3  O3  UNL     1     -18.964  65.027  23.738  1.00  0.00    -0.352 OA
HETATM    4  C5  UNL     1     -18.221  64.668  22.588  1.00  0.00     0.227 C 
HETATM    5  C6  UNL     1     -16.767  64.409  22.998  1.00  0.00     0.069 C 
HETATM    6  C7  UNL     1     -16.104  65.781  23.047  1.00  0.00     0.005 C 
HETATM    7  C8  UNL     1     -16.967  66.719  22.206  1.00  0.00     0.005 C 
HETATM    8  C9  UNL     1     -18.115  65.881  21.658  1.00  0.00     0.069 C 
HETATM    9  N1  UNL     1     -18.848  63.498  21.927  1.00  0.00    -0.028 N 
HETATM   10  H17 UNL     1     -19.304  63.795  21.032  1.00  0.00     0.282 HD
HETATM   11  H18 UNL     1     -18.158  62.747  21.686  1.00  0.00     0.282 HD
ENDROOT
BRANCH   1  12
HETATM   12  C1  UNL     1     -21.147  62.548  22.148  1.00  0.00     0.207 C 
BRANCH  12  13
HETATM   13  O1  UNL     1     -22.093  62.058  23.062  1.00  0.00    -0.398 OA
HETATM   14  H1  UNL     1     -22.610  62.840  23.389  1.00  0.00     0.209 HD
ENDBRANCH  12  13
ENDBRANCH   1  12
BRANCH   1  15
HETATM   15  C3  UNL     1     -19.283  61.886  23.765  1.00  0.00     0.207 C 
BRANCH  15  16
HETATM   16  O2  UNL     1     -19.512  60.624  23.188  1.00  0.00    -0.398 OA
HETATM   17  H6  UNL     1     -20.325  60.248  23.615  1.00  0.00     0.209 HD
ENDBRANCH  15  16
ENDBRANCH   1  15
TORSDOF 4
ENDMDL
MODEL 3
REMARK VINA RESULT:      -4.9      2.326      3.466
REMARK  4 active torsions:
REMARK  status: ('A' for Active; 'I' for Inactive)
REMARK    1  A    between atoms: O1_1  and  C1_2 
REMARK    2  A    between atoms: C1_2  and  C2_3 
REMARK    3  A    between atoms: C2_3  and  C3_4 
REMARK    4  A    between atoms: C3_4  and  O2_5 
ROOT
HETATM    1  C2  UNL     1     -17.733  63.776  22.709  1.00  0.00     0.192 C 
HETATM    2  C4  UNL     1     -18.280  64.631  23.845  1.00  0.00     0.214 C 
HETATM    3  O3  UNL     1     -19.595  64.209  24.084  1.00  0.00    -0.352 OA
HETATM    4  C5  UNL     1     -19.691  62.876  23.614  1.00  0.00     0.227 C 
HETATM    5  C6  UNL     1     -20.960  62.740  22.766  1.00  0.00     0.069 C 
HETATM    6  C7  UNL     1     -22.095  62.513  23.759  1.00  0.00     0.005 C 
HETATM    7  C8  UNL     1     -21.456  62.019  25.055  1.00  0.00     0.005 C 
HETATM    8  C9  UNL     1     -19.956  61.943  24.799  1.00  0.00     0.069 C 
HETATM    9  N1  UNL     1     -18.461  62.515  22.870  1.00  0.00    -0.028 N 
HETATM   10  H17 UNL     1     -17.890  61.838  23.430  1.00  0.00     0.282 HD
HETATM   11  H18 UNL     1     -18.662  62.059  21.948  1.00  0.00     0.282 HD
ENDROOT
BRANCH   1  12
HETATM   12  C1  UNL     1     -16.200  63.574  22.859  1.00  0.00     0.207 C 
BRANCH  12  13
HETATM   13  O1  UNL     1     -15.802  62.325  22.358  1.00  0.00    -0.398 OA
HETATM   14  H1  UNL     1     -15.207  61.917  23.039  1.00  0.00     0.209 HD
ENDBRANCH  12  13
ENDBRANCH   1  12
BRANCH   1  15
HETATM   15  C3  UNL     1     -18.063  64.424  21.332  1.00  0.00     0.207 C 
BRANCH  15  16
HETATM   16  O2  UNL     1     -17.298  63.850  20.301  1.00  0.00    -0.398 OA
HETATM   17  H6  UNL     1     -17.819  63.939  19.462  1.00  0.00     0.209 HD
ENDBRANCH  15  16
ENDBRANCH   1  15
TORSDOF 4
ENDMDL
MODEL 4
REMARK VINA RESULT:      -4.9      3.131      3.578
REMARK  4 active torsions:
REMARK  status: ('A' for Active; 'I' for Inactive)
REMARK    1  A    between atoms: O1_1  and  C1_2 
REMARK    2  A    between atoms: C1_2  and  C2_3 
REMARK    3  A    between atoms: C2_3  and  C3_4 
REMARK    4  A    between atoms: C3_4  and  O2_5 
ROOT
HETATM    1  C2  UNL     1     -21.670  65.336  25.295  1.00  0.00     0.192 C 
HETATM    2  C4  UNL     1     -22.380  64.292  24.443  1.00  0.00     0.214 C 
HETATM    3  O3  UNL     1     -23.628  64.054  25.035  1.00  0.00    -0.352 OA
HETATM    4  C5  UNL     1     -23.950  65.206  25.793  1.00  0.00     0.227 C 
HETATM    5  C6  UNL     1     -24.428  64.767  27.182  1.00  0.00     0.069 C 
HETATM    6  C7  UNL     1     -25.903  64.416  27.016  1.00  0.00     0.005 C 
HETATM    7  C8  UNL     1     -26.382  65.112  25.743  1.00  0.00     0.005 C 
HETATM    8  C9  UNL     1     -25.187  65.877  25.189  1.00  0.00     0.069 C 
HETATM    9  N1  UNL     1     -22.780  66.115  25.849  1.00  0.00    -0.028 N 
HETATM   10  H17 UNL     1     -22.957  66.962  25.259  1.00  0.00     0.282 HD
HETATM   11  H18 UNL     1     -22.573  66.454  26.819  1.00  0.00     0.282 HD
ENDROOT
BRANCH   1  12
HETATM   12  C1  UNL     1     -20.734  66.217  24.422  1.00  0.00     0.207 C 
BRANCH  12  13
HETATM   13  O1  UNL     1     -21.415  67.337  23.919  1.00  0.00    -0.398 OA
HETATM   14  H1  UNL     1     -21.644  67.908  24.697  1.00  0.00     0.209 HD
ENDBRANCH  12  13
ENDBRANCH   1  12
BRANCH   1  15
HETATM   15  C3  UNL     1     -20.862  64.650  26.436  1.00  0.00     0.207 C 
BRANCH  15  16
HETATM   16  O2  UNL     1     -21.074  63.259  26.446  1.00  0.00    -0.398 OA
HETATM   17  H6  UNL     1     -21.812  63.069  25.810  1.00  0.00     0.209 HD
ENDBRANCH  15  16
ENDBRANCH   1  15
TORSDOF 4
ENDMDL
MODEL 5
REMARK VINA RESULT:      -4.8      2.797      3.975
REMARK  4 active torsions:
REMARK  status: ('A' for Active; 'I' for Inactive)
REMARK    1  A    between atoms: O1_1  and  C1_2 
REMARK    2  A    between atoms: C1_2  and  C2_3 
REMARK    3  A    between atoms: C2_3  and  C3_4 
REMARK    4  A    between atoms: C3_4  and  O2_5 
ROOT
HETATM    1  C2  UNL     1     -21.303  65.681  25.275  1.00  0.00     0.192 C 
HETATM    2  C4  UNL     1     -21.370  65.625  26.796  1.00  0.00     0.214 C 
HETATM    3  O3  UNL     1     -22.700  65.347  27.141  1.00  0.00    -0.352 OA
HETATM    4  C5  UNL     1     -23.288  64.703  26.026  1.00  0.00     0.227 C 
HETATM    5  C6  UNL     1     -24.645  65.354  25.736  1.00  0.00     0.069 C 
HETATM    6  C7  UNL     1     -25.632  64.690  26.691  1.00  0.00     0.005 C 
HETATM    7  C8  UNL     1     -25.000  63.370  27.130  1.00  0.00     0.005 C 
HETATM    8  C9  UNL     1     -23.660  63.268  26.412  1.00  0.00     0.069 C 
HETATM    9  N1  UNL     1     -22.365  64.758  24.867  1.00  0.00    -0.028 N 
HETATM   10  H17 UNL     1     -21.966  63.808  24.682  1.00  0.00     0.282 HD
HETATM   11  H18 UNL     1     -22.837  65.071  23.985  1.00  0.00     0.282 HD
ENDROOT
BRANCH   1  12
HETATM   12  C1  UNL     1     -19.911  65.211  24.766  1.00  0.00     0.207 C 
BRANCH  12  13
HETATM   13  O1  UNL     1     -20.004  64.649  23.484  1.00  0.00    -0.398 OA
HETATM   14  H1  UNL     1     -20.940  64.777  23.180  1.00  0.00     0.209 HD
ENDBRANCH  12  13
ENDBRANCH   1  12
BRANCH   1  15
HETATM   15  C3  UNL     1     -21.608  67.122  24.769  1.00  0.00     0.207 C 
BRANCH  15  16
HETATM   16  O2  UNL     1     -20.757  67.481  23.708  1.00  0.00    -0.398 OA
HETATM   17  H6  UNL     1     -20.781  68.470  23.633  1.00  0.00     0.209 HD
ENDBRANCH  15  16
ENDBRANCH   1  15
TORSDOF 4
ENDMDL
MODEL 6
REMARK VINA RESULT:      -4.8      4.118      4.961
REMARK  4 active torsions:
REMARK  status: ('A' for Active; 'I' for Inactive)
REMARK    1  A    between atoms: O1_1  and  C1_2 
REMARK    2  A    between atoms: C1_2  and  C2_3 
REMARK    3  A    between atoms: C2_3  and  C3_4 
REMARK    4  A    between atoms: C3_4  and  O2_5 
ROOT
HETATM    1  C2  UNL     1     -19.965  67.263  25.691  1.00  0.00     0.192 C 
HETATM    2  C4  UNL     1     -20.455  66.581  26.961  1.00  0.00     0.214 C 
HETATM    3  O3  UNL     1     -21.776  66.173  26.729  1.00  0.00    -0.352 OA
HETATM    4  C5  UNL     1     -21.925  66.044  25.327  1.00  0.00     0.227 C 
HETATM    5  C6  UNL     1     -23.220  66.745  24.899  1.00  0.00     0.069 C 
HETATM    6  C7  UNL     1     -24.335  65.736  25.151  1.00  0.00     0.005 C 
HETATM    7  C8  UNL     1     -23.678  64.358  25.216  1.00  0.00     0.005 C 
HETATM    8  C9  UNL     1     -22.188  64.575  24.982  1.00  0.00     0.069 C 
HETATM    9  N1  UNL     1     -20.727  66.583  24.640  1.00  0.00    -0.028 N 
HETATM   10  H17 UNL     1     -20.163  65.798  24.236  1.00  0.00     0.282 HD
HETATM   11  H18 UNL     1     -20.965  67.229  23.851  1.00  0.00     0.282 HD
ENDROOT
BRANCH   1  12
HETATM   12  C1  UNL     1     -18.434  67.058  25.510  1.00  0.00     0.207 C 
BRANCH  12  13
HETATM   13  O1  UNL     1     -18.050  67.263  24.175  1.00  0.00    -0.398 OA
HETATM   14  H1  UNL     1     -18.229  66.416  23.691  1.00  0.00     0.209 HD
ENDBRANCH  12  13
ENDBRANCH   1  12
BRANCH   1  15
HETATM   15  C3  UNL     1     -20.310  68.781  25.719  1.00  0.00     0.207 C 
BRANCH  15  16
HETATM   16  O2  UNL     1     -19.149  69.570  25.633  1.00  0.00    -0.398 OA
HETATM   17  H6  UNL     1     -18.414  69.061  26.064  1.00  0.00     0.209 HD
ENDBRANCH  15  16
ENDBRANCH   1  15
TORSDOF 4
ENDMDL
MODEL 7
REMARK VINA RESULT:      -4.8      2.380      3.593
REMARK  4 active torsions:
REMARK  status: ('A' for Active; 'I' for Inactive)
REMARK    1  A    between atoms: O1_1  and  C1_2 
REMARK    2  A    between atoms: C1_2  and  C2_3 
REMARK    3  A    between atoms: C2_3  and  C3_4 
REMARK    4  A    between atoms: C3_4  and  O2_5 
ROOT
HETATM    1  C2  UNL     1     -17.853  64.840  22.352  1.00  0.00     0.192 C 
HETATM    2  C4  UNL     1     -17.602  63.511  23.052  1.00  0.00     0.214 C 
HETATM    3  O3  UNL     1     -18.788  63.161  23.714  1.00  0.00    -0.352 OA
HETATM    4  C5  UNL     1     -19.843  63.830  23.047  1.00  0.00     0.227 C 
HETATM    5  C6  UNL     1     -20.743  64.500  24.090  1.00  0.00     0.069 C 
HETATM    6  C7  UNL     1     -21.690  63.408  24.578  1.00  0.00     0.005 C 
HETATM    7  C8  UNL     1     -21.694  62.317  23.508  1.00  0.00     0.005 C 
HETATM    8  C9  UNL     1     -20.765  62.793  22.398  1.00  0.00     0.069 C 
HETATM    9  N1  UNL     1     -19.289  64.792  22.064  1.00  0.00    -0.028 N 
HETATM   10  H17 UNL     1     -19.449  64.440  21.090  1.00  0.00     0.282 HD
HETATM   11  H18 UNL     1     -19.732  65.739  22.126  1.00  0.00     0.282 HD
ENDROOT
BRANCH   1  12
HETATM   12  C1  UNL     1     -17.012  64.945  21.050  1.00  0.00     0.207 C 
BRANCH  12  13
HETATM   13  O1  UNL     1     -17.321  63.904  20.161  1.00  0.00    -0.398 OA
HETATM   14  H1  UNL     1     -18.066  64.224  19.590  1.00  0.00     0.209 HD
ENDBRANCH  12  13
ENDBRANCH   1  12
BRANCH   1  15
HETATM   15  C3  UNL     1     -17.528  66.028  23.306  1.00  0.00     0.207 C 
BRANCH  15  16
HETATM   16  O2  UNL     1     -17.256  67.203  22.582  1.00  0.00    -0.398 OA
HETATM   17  H6  UNL     1     -16.296  67.179  22.332  1.00  0.00     0.209 HD
ENDBRANCH  15  16
ENDBRANCH   1  15
TORSDOF 4
ENDMDL
MODEL 8
REMARK VINA RESULT:      -4.8      1.655      2.722
REMARK  4 active torsions:
REMARK  status: ('A' for Active; 'I' for Inactive)
REMARK    1  A    between atoms: O1_1  and  C1_2 
REMARK    2  A    between atoms: C1_2  and  C2_3 
REMARK    3  A    between atoms: C2_3  and  C3_4 
REMARK    4  A    between atoms: C3_4  and  O2_5 
ROOT
HETATM    1  C2  UNL     1     -20.498  62.720  24.422  1.00  0.00     0.192 C 
HETATM    2  C4  UNL     1     -20.201  63.555  25.661  1.00  0.00     0.214 C 
HETATM    3  O3  UNL     1     -21.377  64.243  25.988  1.00  0.00    -0.352 OA
HETATM    4  C5  UNL     1     -22.452  63.506  25.435  1.00  0.00     0.227 C 
HETATM    5  C6  UNL     1     -23.388  64.470  24.697  1.00  0.00     0.069 C 
HETATM    6  C7  UNL     1     -24.294  65.063  25.771  1.00  0.00     0.005 C 
HETATM    7  C8  UNL     1     -24.245  64.112  26.965  1.00  0.00     0.005 C 
HETATM    8  C9  UNL     1     -23.326  62.963  26.569  1.00  0.00     0.069 C 
HETATM    9  N1  UNL     1     -21.928  62.431  24.558  1.00  0.00    -0.028 N 
HETATM   10  H17 UNL     1     -22.066  61.499  25.014  1.00  0.00     0.282 HD
HETATM   11  H18 UNL     1     -22.409  62.394  23.628  1.00  0.00     0.282 HD
ENDROOT
BRANCH   1  12
HETATM   12  C1  UNL     1     -19.650  61.418  24.417  1.00  0.00     0.207 C 
BRANCH  12  13
HETATM   13  O1  UNL     1     -19.520  60.903  23.118  1.00  0.00    -0.398 OA
HETATM   14  H1  UNL     1     -19.807  61.619  22.494  1.00  0.00     0.209 HD
ENDBRANCH  12  13
ENDBRANCH   1  12
BRANCH   1  15
HETATM   15  C3  UNL     1     -20.229  63.548  23.130  1.00  0.00     0.207 C 
BRANCH  15  16
HETATM   16  O2  UNL     1     -19.894  64.878  23.437  1.00  0.00    -0.398 OA
HETATM   17  H6  UNL     1     -20.494  65.171  24.171  1.00  0.00     0.209 HD
ENDBRANCH  15  16
ENDBRANCH   1  15
TORSDOF 4
ENDMDL
MODEL 9
REMARK VINA RESULT:      -4.7      4.972      6.751
REMARK  4 active torsions:
REMARK  status: ('A' for Active; 'I' for Inactive)
REMARK    1  A    between atoms: O1_1  and  C1_2 
REMARK    2  A    between atoms: C1_2  and  C2_3 
REMARK    3  A    between atoms: C2_3  and  C3_4 
REMARK    4  A    between atoms: C3_4  and  O2_5 
ROOT
HETATM    1  C2  UNL     1     -14.037  65.110  20.827  1.00  0.00     0.192 C 
HETATM    2  C4  UNL     1     -14.704  64.036  19.977  1.00  0.00     0.214 C 
HETATM    3  O3  UNL     1     -15.905  63.691  20.613  1.00  0.00    -0.352 OA
HETATM    4  C5  UNL     1     -16.277  64.798  21.415  1.00  0.00     0.227 C 
HETATM    5  C6  UNL     1     -16.662  64.293  22.810  1.00  0.00     0.069 C 
HETATM    6  C7  UNL     1     -18.113  63.836  22.695  1.00  0.00     0.005 C 
HETATM    7  C8  UNL     1     -18.696  64.523  21.462  1.00  0.00     0.005 C 
HETATM    8  C9  UNL     1     -17.586  65.388  20.880  1.00  0.00     0.069 C 
HETATM    9  N1  UNL     1     -15.177  65.791  21.447  1.00  0.00    -0.028 N 
HETATM   10  H17 UNL     1     -15.441  66.635  20.886  1.00  0.00     0.282 HD
HETATM   11  H18 UNL     1     -14.954  66.121  22.416  1.00  0.00     0.282 HD
ENDROOT
BRANCH   1  12
HETATM   12  C1  UNL     1     -13.206  66.079  19.940  1.00  0.00     0.207 C 
BRANCH  12  13
HETATM   13  O1  UNL     1     -13.517  67.418  20.224  1.00  0.00    -0.398 OA
HETATM   14  H1  UNL     1     -12.758  67.784  20.748  1.00  0.00     0.209 HD
ENDBRANCH  12  13
ENDBRANCH   1  12
BRANCH   1  15
HETATM   15  C3  UNL     1     -13.133  64.460  21.915  1.00  0.00     0.207 C 
BRANCH  15  16
HETATM   16  O2  UNL     1     -13.255  63.059  21.910  1.00  0.00    -0.398 OA
HETATM   17  H6  UNL     1     -12.420  62.692  21.519  1.00  0.00     0.209 HD
ENDBRANCH  15  16
ENDBRANCH   1  15
TORSDOF 4
ENDMDL
