MODEL 1
REMARK VINA RESULT:      -7.2      0.000      0.000
REMARK  1 active torsions:
REMARK  status: ('A' for Active; 'I' for Inactive)
REMARK    1  A    between atoms: O1_2  and  C2_3 
ROOT
HETATM    1  C2  UNL     1     -24.393  65.924  25.158  1.00  0.00     0.082 A 
HETATM    2  C3  UNL     1     -24.220  65.206  26.363  1.00  0.00     0.039 A 
HETATM    3  C4  UNL     1     -25.319  64.584  26.984  1.00  0.00     0.022 A 
HETATM    4  C5  UNL     1     -26.600  64.667  26.416  1.00  0.00     0.018 A 
HETATM    5 BR1  UNL     1     -28.083  63.817  27.271  1.00  0.00    -0.051 Br
HETATM    6  C6  UNL     1     -26.758  65.382  25.222  1.00  0.00    -0.024 A 
HETATM    7  C7  UNL     1     -25.682  65.989  24.618  1.00  0.00     0.051 A 
HETATM    8  C8  UNL     1     -26.138  66.646  23.415  1.00  0.00     0.163 A 
HETATM    9  O2  UNL     1     -25.403  67.296  22.626  1.00  0.00    -0.292 OA
HETATM   10  C9  UNL     1     -27.605  66.448  23.233  1.00  0.00     0.088 A 
HETATM   11  C10 UNL     1     -28.026  65.595  24.453  1.00  0.00     0.049 A 
ENDROOT
BRANCH   1  12
HETATM   12  O1  UNL     1     -23.334  66.564  24.496  1.00  0.00    -0.355 OA
HETATM   13  C1  UNL     1     -22.176  67.077  25.147  1.00  0.00     0.210 C 
ENDBRANCH   1  12
TORSDOF 1
ENDMDL
MODEL 2
REMARK VINA RESULT:      -6.9      1.380      2.157
REMARK  1 active torsions:
REMARK  status: ('A' for Active; 'I' for Inactive)
REMARK    1  A    between atoms: O1_2  and  C2_3 
ROOT
HETATM    1  C2  UNL     1     -25.793  65.936  24.474  1.00  0.00     0.082 A 
HETATM    2  C3  UNL     1     -24.824  65.635  25.459  1.00  0.00     0.039 A 
HETATM    3  C4  UNL     1     -25.169  64.862  26.583  1.00  0.00     0.022 A 
HETATM    4  C5  UNL     1     -26.477  64.378  26.741  1.00  0.00     0.018 A 
HETATM    5 BR1  UNL     1     -26.930  63.328  28.274  1.00  0.00    -0.051 Br
HETATM    6  C6  UNL     1     -27.427  64.683  25.759  1.00  0.00    -0.024 A 
HETATM    7  C7  UNL     1     -27.087  65.439  24.663  1.00  0.00     0.051 A 
HETATM    8  C8  UNL     1     -28.255  65.592  23.826  1.00  0.00     0.163 A 
HETATM    9  O2  UNL     1     -28.287  66.230  22.741  1.00  0.00    -0.292 OA
HETATM   10  C9  UNL     1     -29.424  64.886  24.425  1.00  0.00     0.088 A 
HETATM   11  C10 UNL     1     -28.868  64.272  25.731  1.00  0.00     0.049 A 
ENDROOT
BRANCH   1  12
HETATM   12  O1  UNL     1     -25.505  66.702  23.335  1.00  0.00    -0.355 OA
HETATM   13  C1  UNL     1     -25.759  68.099  23.225  1.00  0.00     0.210 C 
ENDBRANCH   1  12
TORSDOF 1
ENDMDL
MODEL 3
REMARK VINA RESULT:      -6.9      1.992      3.837
REMARK  1 active torsions:
REMARK  status: ('A' for Active; 'I' for Inactive)
REMARK    1  A    between atoms: O1_2  and  C2_3 
ROOT
HETATM    1  C2  UNL     1     -27.725  65.035  25.992  1.00  0.00     0.082 A 
HETATM    2  C3  UNL     1     -28.389  64.141  26.863  1.00  0.00     0.039 A 
HETATM    3  C4  UNL     1     -27.654  63.225  27.639  1.00  0.00     0.022 A 
HETATM    4  C5  UNL     1     -26.253  63.187  27.559  1.00  0.00     0.018 A 
HETATM    5 BR1  UNL     1     -25.269  61.937  28.620  1.00  0.00    -0.051 Br
HETATM    6  C6  UNL     1     -25.607  64.077  26.693  1.00  0.00    -0.024 A 
HETATM    7  C7  UNL     1     -26.328  64.970  25.937  1.00  0.00     0.051 A 
HETATM    8  C8  UNL     1     -25.408  65.754  25.145  1.00  0.00     0.163 A 
HETATM    9  O2  UNL     1     -25.742  66.664  24.342  1.00  0.00    -0.292 OA
HETATM   10  C9  UNL     1     -24.001  65.337  25.411  1.00  0.00     0.088 A 
HETATM   11  C10 UNL     1     -24.132  64.204  26.456  1.00  0.00     0.049 A 
ENDROOT
BRANCH   1  12
HETATM   12  O1  UNL     1     -28.406  65.967  25.196  1.00  0.00    -0.355 OA
HETATM   13  C1  UNL     1     -29.200  65.625  24.064  1.00  0.00     0.210 C 
ENDBRANCH   1  12
TORSDOF 1
ENDMDL
MODEL 4
REMARK VINA RESULT:      -6.9      2.497      3.705
REMARK  1 active torsions:
REMARK  status: ('A' for Active; 'I' for Inactive)
REMARK    1  A    between atoms: O1_2  and  C2_3 
ROOT
HETATM    1  C2  UNL     1     -27.273  65.113  25.652  1.00  0.00     0.082 A 
HETATM    2  C3  UNL     1     -26.582  64.453  26.695  1.00  0.00     0.039 A 
HETATM    3  C4  UNL     1     -25.190  64.604  26.833  1.00  0.00     0.022 A 
HETATM    4  C5  UNL     1     -24.469  65.411  25.939  1.00  0.00     0.018 A 
HETATM    5 BR1  UNL     1     -22.577  65.606  26.139  1.00  0.00    -0.051 Br
HETATM    6  C6  UNL     1     -25.164  66.059  24.911  1.00  0.00    -0.024 A 
HETATM    7  C7  UNL     1     -26.524  65.909  24.779  1.00  0.00     0.051 A 
HETATM    8  C8  UNL     1     -26.966  66.684  23.643  1.00  0.00     0.163 A 
HETATM    9  O2  UNL     1     -28.158  66.766  23.246  1.00  0.00    -0.292 OA
HETATM   10  C9  UNL     1     -25.813  67.379  23.002  1.00  0.00     0.088 A 
HETATM   11  C10 UNL     1     -24.594  66.958  23.856  1.00  0.00     0.049 A 
ENDROOT
BRANCH   1  12
HETATM   12  O1  UNL     1     -28.658  64.998  25.468  1.00  0.00    -0.355 OA
HETATM   13  C1  UNL     1     -29.279  63.997  24.667  1.00  0.00     0.210 C 
ENDBRANCH   1  12
TORSDOF 1
ENDMDL
MODEL 5
REMARK VINA RESULT:      -6.8      2.331      3.869
REMARK  1 active torsions:
REMARK  status: ('A' for Active; 'I' for Inactive)
REMARK    1  A    between atoms: O1_2  and  C2_3 
ROOT
HETATM    1  C2  UNL     1     -26.192  64.006  27.224  1.00  0.00     0.082 A 
HETATM    2  C3  UNL     1     -27.590  63.807  27.161  1.00  0.00     0.039 A 
HETATM    3  C4  UNL     1     -28.358  64.454  26.174  1.00  0.00     0.022 A 
HETATM    4  C5  UNL     1     -27.746  65.304  25.240  1.00  0.00     0.018 A 
HETATM    5 BR1  UNL     1     -28.802  66.177  23.906  1.00  0.00    -0.051 Br
HETATM    6  C6  UNL     1     -26.360  65.494  25.313  1.00  0.00    -0.024 A 
HETATM    7  C7  UNL     1     -25.614  64.861  26.278  1.00  0.00     0.051 A 
HETATM    8  C8  UNL     1     -24.230  65.238  26.113  1.00  0.00     0.163 A 
HETATM    9  O2  UNL     1     -23.281  64.834  26.835  1.00  0.00    -0.292 OA
HETATM   10  C9  UNL     1     -24.076  66.178  24.965  1.00  0.00     0.088 A 
HETATM   11  C10 UNL     1     -25.514  66.352  24.423  1.00  0.00     0.049 A 
ENDROOT
BRANCH   1  12
HETATM   12  O1  UNL     1     -25.380  63.388  28.185  1.00  0.00    -0.355 OA
HETATM   13  C1  UNL     1     -25.057  62.001  28.189  1.00  0.00     0.210 C 
ENDBRANCH   1  12
TORSDOF 1
ENDMDL
MODEL 6
REMARK VINA RESULT:      -6.8      1.646      3.202
REMARK  1 active torsions:
REMARK  status: ('A' for Active; 'I' for Inactive)
REMARK    1  A    between atoms: O1_2  and  C2_3 
ROOT
HETATM    1  C2  UNL     1     -24.243  66.212  24.681  1.00  0.00     0.082 A 
HETATM    2  C3  UNL     1     -24.879  66.941  23.650  1.00  0.00     0.039 A 
HETATM    3  C4  UNL     1     -26.280  66.912  23.518  1.00  0.00     0.022 A 
HETATM    4  C5  UNL     1     -27.064  66.162  24.408  1.00  0.00     0.018 A 
HETATM    5 BR1  UNL     1     -28.966  66.134  24.217  1.00  0.00    -0.051 Br
HETATM    6  C6  UNL     1     -26.422  65.445  25.426  1.00  0.00    -0.024 A 
HETATM    7  C7  UNL     1     -25.054  65.474  25.551  1.00  0.00     0.051 A 
HETATM    8  C8  UNL     1     -24.674  64.651  26.675  1.00  0.00     0.163 A 
HETATM    9  O2  UNL     1     -23.492  64.463  27.065  1.00  0.00    -0.292 OA
HETATM   10  C9  UNL     1     -25.880  64.052  27.316  1.00  0.00     0.088 A 
HETATM   11  C10 UNL     1     -27.063  64.586  26.474  1.00  0.00     0.049 A 
ENDROOT
BRANCH   1  12
HETATM   12  O1  UNL     1     -22.852  66.204  24.858  1.00  0.00    -0.355 OA
HETATM   13  C1  UNL     1     -22.104  67.298  25.379  1.00  0.00     0.210 C 
ENDBRANCH   1  12
TORSDOF 1
ENDMDL
MODEL 7
REMARK VINA RESULT:      -6.7      2.999      3.968
REMARK  1 active torsions:
REMARK  status: ('A' for Active; 'I' for Inactive)
REMARK    1  A    between atoms: O1_2  and  C2_3 
ROOT
HETATM    1  C2  UNL     1     -25.305  64.362  27.045  1.00  0.00     0.082 A 
HETATM    2  C3  UNL     1     -24.191  65.047  26.507  1.00  0.00     0.039 A 
HETATM    3  C4  UNL     1     -24.344  65.883  25.385  1.00  0.00     0.022 A 
HETATM    4  C5  UNL     1     -25.602  66.048  24.786  1.00  0.00     0.018 A 
HETATM    5 BR1  UNL     1     -25.794  67.187  23.262  1.00  0.00    -0.051 Br
HETATM    6  C6  UNL     1     -26.698  65.364  25.328  1.00  0.00    -0.024 A 
HETATM    7  C7  UNL     1     -26.545  64.548  26.423  1.00  0.00     0.051 A 
HETATM    8  C8  UNL     1     -27.830  63.980  26.759  1.00  0.00     0.163 A 
HETATM    9  O2  UNL     1     -28.040  63.187  27.714  1.00  0.00    -0.292 OA
HETATM   10  C9  UNL     1     -28.879  64.463  25.816  1.00  0.00     0.088 A 
HETATM   11  C10 UNL     1     -28.117  65.398  24.847  1.00  0.00     0.049 A 
ENDROOT
BRANCH   1  12
HETATM   12  O1  UNL     1     -25.211  63.517  28.160  1.00  0.00    -0.355 OA
HETATM   13  C1  UNL     1     -24.657  62.205  28.126  1.00  0.00     0.210 C 
ENDBRANCH   1  12
TORSDOF 1
ENDMDL
MODEL 8
REMARK VINA RESULT:      -6.6      2.639      4.328
REMARK  1 active torsions:
REMARK  status: ('A' for Active; 'I' for Inactive)
REMARK    1  A    between atoms: O1_2  and  C2_3 
ROOT
HETATM    1  C2  UNL     1     -26.543  65.882  24.456  1.00  0.00     0.082 A 
HETATM    2  C3  UNL     1     -25.499  66.606  23.836  1.00  0.00     0.039 A 
HETATM    3  C4  UNL     1     -24.207  66.609  24.393  1.00  0.00     0.022 A 
HETATM    4  C5  UNL     1     -23.937  65.893  25.570  1.00  0.00     0.018 A 
HETATM    5 BR1  UNL     1     -22.176  65.907  26.314  1.00  0.00    -0.051 Br
HETATM    6  C6  UNL     1     -24.979  65.180  26.175  1.00  0.00    -0.024 A 
HETATM    7  C7  UNL     1     -26.240  65.179  25.628  1.00  0.00     0.051 A 
HETATM    8  C8  UNL     1     -27.102  64.368  26.456  1.00  0.00     0.163 A 
HETATM    9  O2  UNL     1     -28.324  64.158  26.236  1.00  0.00    -0.292 OA
HETATM   10  C9  UNL     1     -26.344  63.810  27.612  1.00  0.00     0.088 A 
HETATM   11  C10 UNL     1     -24.909  64.357  27.425  1.00  0.00     0.049 A 
ENDROOT
BRANCH   1  12
HETATM   12  O1  UNL     1     -27.849  65.844  23.946  1.00  0.00    -0.355 OA
HETATM   13  C1  UNL     1     -28.799  66.893  24.099  1.00  0.00     0.210 C 
ENDBRANCH   1  12
TORSDOF 1
ENDMDL
MODEL 9
REMARK VINA RESULT:      -6.5      2.479      3.749
REMARK  1 active torsions:
REMARK  status: ('A' for Active; 'I' for Inactive)
REMARK    1  A    between atoms: O1_2  and  C2_3 
ROOT
HETATM    1  C2  UNL     1     -24.652  64.769  26.062  1.00  0.00     0.082 A 
HETATM    2  C3  UNL     1     -24.562  65.726  25.026  1.00  0.00     0.039 A 
HETATM    3  C4  UNL     1     -25.728  66.265  24.451  1.00  0.00     0.022 A 
HETATM    4  C5  UNL     1     -26.995  65.860  24.899  1.00  0.00     0.018 A 
HETATM    5 BR1  UNL     1     -28.571  66.601  24.109  1.00  0.00    -0.051 Br
HETATM    6  C6  UNL     1     -27.072  64.911  25.926  1.00  0.00    -0.024 A 
HETATM    7  C7  UNL     1     -25.930  64.387  26.485  1.00  0.00     0.051 A 
HETATM    8  C8  UNL     1     -26.309  63.442  27.509  1.00  0.00     0.163 A 
HETATM    9  O2  UNL     1     -25.503  62.783  28.217  1.00  0.00    -0.292 OA
HETATM   10  C9  UNL     1     -27.794  63.353  27.616  1.00  0.00     0.088 A 
HETATM   11  C10 UNL     1     -28.312  64.344  26.548  1.00  0.00     0.049 A 
ENDROOT
BRANCH   1  12
HETATM   12  O1  UNL     1     -23.524  64.199  26.670  1.00  0.00    -0.355 OA
HETATM   13  C1  UNL     1     -22.712  63.195  26.070  1.00  0.00     0.210 C 
ENDBRANCH   1  12
TORSDOF 1
ENDMDL
