MODEL 1
REMARK VINA RESULT:      -6.7      0.000      0.000
REMARK  4 active torsions:
REMARK  status: ('A' for Active; 'I' for Inactive)
REMARK    1  A    between atoms: C2_2  and  N1_3 
REMARK    2  A    between atoms: C3_7  and  N3_8 
REMARK    3  A    between atoms: C4_11  and  N4_12 
REMARK    4  A    between atoms: N5_13  and  C5_14 
ROOT
HETATM    1  C1  UNL     1     -21.190  61.976  24.617  1.00  0.00     0.052 A 
HETATM    2  C2  UNL     1     -20.653  62.389  23.393  1.00  0.00     0.123 A 
HETATM    3  N2  UNL     1     -20.342  63.699  23.200  1.00  0.00    -0.212 NA
HETATM    4  C3  UNL     1     -20.547  64.642  24.160  1.00  0.00     0.154 A 
HETATM    5  C4  UNL     1     -21.116  64.273  25.393  1.00  0.00     0.124 A 
HETATM    6  C11 UNL     1     -21.409  62.919  25.620  1.00  0.00     0.041 A 
ENDROOT
BRANCH   5   7
HETATM    7  N4  UNL     1     -21.297  65.252  26.429  1.00  0.00    -0.146 NA
HETATM    8  N5  UNL     1     -22.377  65.892  26.675  1.00  0.00    -0.150 NA
BRANCH   8   9
HETATM    9  C5  UNL     1     -23.564  65.878  25.866  1.00  0.00     0.079 A 
HETATM   10  C6  UNL     1     -24.683  65.161  26.308  1.00  0.00     0.036 A 
HETATM   11  C7  UNL     1     -25.862  65.159  25.558  1.00  0.00     0.042 A 
HETATM   12  C8  UNL     1     -25.940  65.897  24.372  1.00  0.00     0.107 A 
HETATM   13  O1  UNL     1     -27.112  65.894  23.626  1.00  0.00    -0.192 OA
HETATM   14  C9  UNL     1     -24.839  66.643  23.941  1.00  0.00     0.042 A 
HETATM   15  C10 UNL     1     -23.658  66.646  24.690  1.00  0.00     0.036 A 
ENDBRANCH   8   9
ENDBRANCH   5   7
BRANCH   4  16
HETATM   16  N3  UNL     1     -20.194  66.001  23.887  1.00  0.00    -0.382 N 
HETATM   17  H4  UNL     1     -20.037  66.668  24.675  1.00  0.00     0.157 HD
HETATM   18  H5  UNL     1     -20.084  66.355  22.911  1.00  0.00     0.157 HD
ENDBRANCH   4  16
BRANCH   2  19
HETATM   19  N1  UNL     1     -20.418  61.443  22.349  1.00  0.00    -0.384 N 
HETATM   20  H2  UNL     1     -21.202  60.886  21.943  1.00  0.00     0.157 HD
HETATM   21  H3  UNL     1     -19.453  61.300  21.978  1.00  0.00     0.157 HD
ENDBRANCH   2  19
TORSDOF 4
ENDMDL
MODEL 2
REMARK VINA RESULT:      -6.2      2.981      5.540
REMARK  4 active torsions:
REMARK  status: ('A' for Active; 'I' for Inactive)
REMARK    1  A    between atoms: C2_2  and  N1_3 
REMARK    2  A    between atoms: C3_7  and  N3_8 
REMARK    3  A    between atoms: C4_11  and  N4_12 
REMARK    4  A    between atoms: N5_13  and  C5_14 
ROOT
HETATM    1  C1  UNL     1     -25.117  66.865  23.441  1.00  0.00     0.052 A 
HETATM    2  C2  UNL     1     -26.383  66.288  23.584  1.00  0.00     0.123 A 
HETATM    3  N2  UNL     1     -26.659  65.530  24.680  1.00  0.00    -0.212 NA
HETATM    4  C3  UNL     1     -25.736  65.297  25.652  1.00  0.00     0.154 A 
HETATM    5  C4  UNL     1     -24.440  65.833  25.529  1.00  0.00     0.124 A 
HETATM    6  C11 UNL     1     -24.151  66.645  24.421  1.00  0.00     0.041 A 
ENDROOT
BRANCH   5   7
HETATM    7  N4  UNL     1     -23.470  65.629  26.570  1.00  0.00    -0.146 NA
HETATM    8  N5  UNL     1     -22.346  65.033  26.440  1.00  0.00    -0.150 NA
BRANCH   8   9
HETATM    9  C5  UNL     1     -21.907  64.311  25.277  1.00  0.00     0.079 A 
HETATM   10  C6  UNL     1     -20.807  64.788  24.554  1.00  0.00     0.036 A 
HETATM   11  C7  UNL     1     -20.337  64.086  23.439  1.00  0.00     0.042 A 
HETATM   12  C8  UNL     1     -20.949  62.888  23.056  1.00  0.00     0.107 A 
HETATM   13  O1  UNL     1     -20.482  62.193  21.948  1.00  0.00    -0.192 OA
HETATM   14  C9  UNL     1     -22.026  62.389  23.793  1.00  0.00     0.042 A 
HETATM   15  C10 UNL     1     -22.498  63.088  24.908  1.00  0.00     0.036 A 
ENDBRANCH   8   9
ENDBRANCH   5   7
BRANCH   4  16
HETATM   16  N3  UNL     1     -26.098  64.491  26.777  1.00  0.00    -0.382 N 
HETATM   17  H4  UNL     1     -25.681  64.686  27.715  1.00  0.00     0.157 HD
HETATM   18  H5  UNL     1     -26.779  63.704  26.693  1.00  0.00     0.157 HD
ENDBRANCH   4  16
BRANCH   2  19
HETATM   19  N1  UNL     1     -27.391  66.497  22.594  1.00  0.00    -0.384 N 
HETATM   20  H2  UNL     1     -27.158  66.477  21.577  1.00  0.00     0.157 HD
HETATM   21  H3  UNL     1     -28.380  66.673  22.881  1.00  0.00     0.157 HD
ENDBRANCH   2  19
TORSDOF 4
ENDMDL
MODEL 3
REMARK VINA RESULT:      -6.1      4.034      5.973
REMARK  4 active torsions:
REMARK  status: ('A' for Active; 'I' for Inactive)
REMARK    1  A    between atoms: C2_2  and  N1_3 
REMARK    2  A    between atoms: C3_7  and  N3_8 
REMARK    3  A    between atoms: C4_11  and  N4_12 
REMARK    4  A    between atoms: N5_13  and  C5_14 
ROOT
HETATM    1  C1  UNL     1     -25.746  66.389  24.019  1.00  0.00     0.052 A 
HETATM    2  C2  UNL     1     -26.924  66.134  23.311  1.00  0.00     0.123 A 
HETATM    3  N2  UNL     1     -27.918  65.410  23.893  1.00  0.00    -0.212 NA
HETATM    4  C3  UNL     1     -27.807  64.905  25.152  1.00  0.00     0.154 A 
HETATM    5  C4  UNL     1     -26.623  65.112  25.885  1.00  0.00     0.124 A 
HETATM    6  C11 UNL     1     -25.602  65.886  25.311  1.00  0.00     0.041 A 
ENDROOT
BRANCH   5   7
HETATM    7  N4  UNL     1     -26.511  64.620  27.231  1.00  0.00    -0.146 NA
HETATM    8  N5  UNL     1     -25.424  64.293  27.821  1.00  0.00    -0.150 NA
BRANCH   8   9
HETATM    9  C5  UNL     1     -24.129  64.198  27.205  1.00  0.00     0.079 A 
HETATM   10  C6  UNL     1     -23.217  65.249  27.368  1.00  0.00     0.036 A 
HETATM   11  C7  UNL     1     -21.939  65.167  26.809  1.00  0.00     0.042 A 
HETATM   12  C8  UNL     1     -21.554  64.022  26.103  1.00  0.00     0.107 A 
HETATM   13  O1  UNL     1     -20.283  63.943  25.547  1.00  0.00    -0.192 OA
HETATM   14  C9  UNL     1     -22.447  62.956  25.965  1.00  0.00     0.042 A 
HETATM   15  C10 UNL     1     -23.726  63.035  26.523  1.00  0.00     0.036 A 
ENDBRANCH   8   9
ENDBRANCH   5   7
BRANCH   4  16
HETATM   16  N3  UNL     1     -28.894  64.155  25.700  1.00  0.00    -0.382 N 
HETATM   17  H4  UNL     1     -29.871  64.347  25.387  1.00  0.00     0.157 HD
HETATM   18  H5  UNL     1     -28.741  63.405  26.411  1.00  0.00     0.157 HD
ENDBRANCH   4  16
BRANCH   2  19
HETATM   19  N1  UNL     1     -27.096  66.638  21.986  1.00  0.00    -0.384 N 
HETATM   20  H2  UNL     1     -28.009  66.540  21.488  1.00  0.00     0.157 HD
HETATM   21  H3  UNL     1     -26.305  67.114  21.498  1.00  0.00     0.157 HD
ENDBRANCH   2  19
TORSDOF 4
ENDMDL
MODEL 4
REMARK VINA RESULT:      -5.9      1.353      2.300
REMARK  4 active torsions:
REMARK  status: ('A' for Active; 'I' for Inactive)
REMARK    1  A    between atoms: C2_2  and  N1_3 
REMARK    2  A    between atoms: C3_7  and  N3_8 
REMARK    3  A    between atoms: C4_11  and  N4_12 
REMARK    4  A    between atoms: N5_13  and  C5_14 
ROOT
HETATM    1  C1  UNL     1     -19.954  63.762  22.766  1.00  0.00     0.052 A 
HETATM    2  C2  UNL     1     -20.142  62.450  23.213  1.00  0.00     0.123 A 
HETATM    3  N2  UNL     1     -20.214  62.196  24.548  1.00  0.00    -0.212 NA
HETATM    4  C3  UNL     1     -20.099  63.180  25.481  1.00  0.00     0.154 A 
HETATM    5  C4  UNL     1     -19.876  64.508  25.072  1.00  0.00     0.124 A 
HETATM    6  C11 UNL     1     -19.833  64.791  23.697  1.00  0.00     0.041 A 
ENDROOT
BRANCH   5   7
HETATM    7  N4  UNL     1     -19.795  65.561  26.047  1.00  0.00    -0.146 NA
HETATM    8  N5  UNL     1     -20.787  66.176  26.570  1.00  0.00    -0.150 NA
BRANCH   8   9
HETATM    9  C5  UNL     1     -22.161  66.050  26.168  1.00  0.00     0.079 A 
HETATM   10  C6  UNL     1     -22.602  66.729  25.026  1.00  0.00     0.036 A 
HETATM   11  C7  UNL     1     -23.924  66.596  24.593  1.00  0.00     0.042 A 
HETATM   12  C8  UNL     1     -24.809  65.762  25.285  1.00  0.00     0.107 A 
HETATM   13  O1  UNL     1     -26.123  65.632  24.855  1.00  0.00    -0.192 OA
HETATM   14  C9  UNL     1     -24.366  65.055  26.407  1.00  0.00     0.042 A 
HETATM   15  C10 UNL     1     -23.044  65.186  26.842  1.00  0.00     0.036 A 
ENDBRANCH   8   9
ENDBRANCH   5   7
BRANCH   4  16
HETATM   16  N3  UNL     1     -20.187  62.839  26.867  1.00  0.00    -0.382 N 
HETATM   17  H4  UNL     1     -20.685  61.969  27.160  1.00  0.00     0.157 HD
HETATM   18  H5  UNL     1     -19.760  63.437  27.609  1.00  0.00     0.157 HD
ENDBRANCH   4  16
BRANCH   2  19
HETATM   19  N1  UNL     1     -20.268  61.377  22.279  1.00  0.00    -0.384 N 
HETATM   20  H2  UNL     1     -21.069  60.710  22.332  1.00  0.00     0.157 HD
HETATM   21  H3  UNL     1     -19.555  61.249  21.527  1.00  0.00     0.157 HD
ENDBRANCH   2  19
TORSDOF 4
ENDMDL
MODEL 5
REMARK VINA RESULT:      -5.9      1.976      2.512
REMARK  4 active torsions:
REMARK  status: ('A' for Active; 'I' for Inactive)
REMARK    1  A    between atoms: C2_2  and  N1_3 
REMARK    2  A    between atoms: C3_7  and  N3_8 
REMARK    3  A    between atoms: C4_11  and  N4_12 
REMARK    4  A    between atoms: N5_13  and  C5_14 
ROOT
HETATM    1  C1  UNL     1     -21.862  62.309  23.953  1.00  0.00     0.052 A 
HETATM    2  C2  UNL     1     -20.911  61.923  24.903  1.00  0.00     0.123 A 
HETATM    3  N2  UNL     1     -20.451  62.832  25.805  1.00  0.00    -0.212 NA
HETATM    4  C3  UNL     1     -20.877  64.125  25.815  1.00  0.00     0.154 A 
HETATM    5  C4  UNL     1     -21.810  64.560  24.855  1.00  0.00     0.124 A 
HETATM    6  C11 UNL     1     -22.319  63.626  23.939  1.00  0.00     0.041 A 
ENDROOT
BRANCH   5   7
HETATM    7  N4  UNL     1     -22.299  65.911  24.882  1.00  0.00    -0.146 NA
HETATM    8  N5  UNL     1     -23.383  66.305  25.435  1.00  0.00    -0.150 NA
BRANCH   8   9
HETATM    9  C5  UNL     1     -24.400  65.455  25.990  1.00  0.00     0.079 A 
HETATM   10  C6  UNL     1     -24.101  64.684  27.121  1.00  0.00     0.036 A 
HETATM   11  C7  UNL     1     -25.082  63.875  27.702  1.00  0.00     0.042 A 
HETATM   12  C8  UNL     1     -26.376  63.850  27.172  1.00  0.00     0.107 A 
HETATM   13  O1  UNL     1     -27.349  63.045  27.750  1.00  0.00    -0.192 OA
HETATM   14  C9  UNL     1     -26.690  64.643  26.064  1.00  0.00     0.042 A 
HETATM   15  C10 UNL     1     -25.712  65.453  25.481  1.00  0.00     0.036 A 
ENDBRANCH   8   9
ENDBRANCH   5   7
BRANCH   4  16
HETATM   16  N3  UNL     1     -20.351  65.024  26.795  1.00  0.00    -0.382 N 
HETATM   17  H4  UNL     1     -20.996  65.645  27.333  1.00  0.00     0.157 HD
HETATM   18  H5  UNL     1     -19.328  65.079  26.997  1.00  0.00     0.157 HD
ENDBRANCH   4  16
BRANCH   2  19
HETATM   19  N1  UNL     1     -20.426  60.581  24.939  1.00  0.00    -0.384 N 
HETATM   20  H2  UNL     1     -20.551  59.987  25.788  1.00  0.00     0.157 HD
HETATM   21  H3  UNL     1     -19.938  60.176  24.108  1.00  0.00     0.157 HD
ENDBRANCH   2  19
TORSDOF 4
ENDMDL
MODEL 6
REMARK VINA RESULT:      -5.8      3.991      5.809
REMARK  4 active torsions:
REMARK  status: ('A' for Active; 'I' for Inactive)
REMARK    1  A    between atoms: C2_2  and  N1_3 
REMARK    2  A    between atoms: C3_7  and  N3_8 
REMARK    3  A    between atoms: C4_11  and  N4_12 
REMARK    4  A    between atoms: N5_13  and  C5_14 
ROOT
HETATM    1  C1  UNL     1     -27.557  64.867  25.755  1.00  0.00     0.052 A 
HETATM    2  C2  UNL     1     -27.856  65.638  24.627  1.00  0.00     0.123 A 
HETATM    3  N2  UNL     1     -26.868  66.342  24.011  1.00  0.00    -0.212 NA
HETATM    4  C3  UNL     1     -25.584  66.337  24.460  1.00  0.00     0.154 A 
HETATM    5  C4  UNL     1     -25.249  65.599  25.611  1.00  0.00     0.124 A 
HETATM    6  C11 UNL     1     -26.250  64.840  26.238  1.00  0.00     0.041 A 
ENDROOT
BRANCH   5   7
HETATM    7  N4  UNL     1     -23.888  65.552  26.070  1.00  0.00    -0.146 NA
HETATM    8  N5  UNL     1     -23.432  64.782  26.984  1.00  0.00    -0.150 NA
BRANCH   8   9
HETATM    9  C5  UNL     1     -24.218  63.937  27.840  1.00  0.00     0.079 A 
HETATM   10  C6  UNL     1     -24.793  64.483  28.995  1.00  0.00     0.036 A 
HETATM   11  C7  UNL     1     -25.591  63.691  29.827  1.00  0.00     0.042 A 
HETATM   12  C8  UNL     1     -25.840  62.355  29.496  1.00  0.00     0.107 A 
HETATM   13  O1  UNL     1     -26.631  61.570  30.324  1.00  0.00    -0.192 OA
HETATM   14  C9  UNL     1     -25.296  61.813  28.328  1.00  0.00     0.042 A 
HETATM   15  C10 UNL     1     -24.498  62.602  27.494  1.00  0.00     0.036 A 
ENDBRANCH   8   9
ENDBRANCH   5   7
BRANCH   4  16
HETATM   16  N3  UNL     1     -24.598  67.100  23.759  1.00  0.00    -0.382 N 
HETATM   17  H4  UNL     1     -24.440  68.102  24.008  1.00  0.00     0.157 HD
HETATM   18  H5  UNL     1     -24.018  66.683  22.998  1.00  0.00     0.157 HD
ENDBRANCH   4  16
BRANCH   2  19
HETATM   19  N1  UNL     1     -29.187  65.683  24.112  1.00  0.00    -0.384 N 
HETATM   20  H2  UNL     1     -29.422  66.270  23.282  1.00  0.00     0.157 HD
HETATM   21  H3  UNL     1     -29.944  65.124  24.565  1.00  0.00     0.157 HD
ENDBRANCH   2  19
TORSDOF 4
ENDMDL
MODEL 7
REMARK VINA RESULT:      -5.8      2.194      3.828
REMARK  4 active torsions:
REMARK  status: ('A' for Active; 'I' for Inactive)
REMARK    1  A    between atoms: C2_2  and  N1_3 
REMARK    2  A    between atoms: C3_7  and  N3_8 
REMARK    3  A    between atoms: C4_11  and  N4_12 
REMARK    4  A    between atoms: N5_13  and  C5_14 
ROOT
HETATM    1  C1  UNL     1     -21.077  67.789  27.318  1.00  0.00     0.052 A 
HETATM    2  C2  UNL     1     -20.559  68.444  26.196  1.00  0.00     0.123 A 
HETATM    3  N2  UNL     1     -20.296  67.738  25.064  1.00  0.00    -0.212 NA
HETATM    4  C3  UNL     1     -20.509  66.396  24.979  1.00  0.00     0.154 A 
HETATM    5  C4  UNL     1     -20.999  65.695  26.097  1.00  0.00     0.124 A 
HETATM    6  C11 UNL     1     -21.308  66.416  27.261  1.00  0.00     0.041 A 
ENDROOT
BRANCH   5   7
HETATM    7  N4  UNL     1     -21.269  64.286  26.006  1.00  0.00    -0.146 NA
HETATM    8  N5  UNL     1     -22.379  63.756  25.656  1.00  0.00    -0.150 NA
BRANCH   8   9
HETATM    9  C5  UNL     1     -23.616  64.458  25.446  1.00  0.00     0.079 A 
HETATM   10  C6  UNL     1     -23.824  65.125  24.232  1.00  0.00     0.036 A 
HETATM   11  C7  UNL     1     -25.031  65.785  23.988  1.00  0.00     0.042 A 
HETATM   12  C8  UNL     1     -26.049  65.763  24.947  1.00  0.00     0.107 A 
HETATM   13  O1  UNL     1     -27.248  66.421  24.704  1.00  0.00    -0.192 OA
HETATM   14  C9  UNL     1     -25.862  65.071  26.147  1.00  0.00     0.042 A 
HETATM   15  C10 UNL     1     -24.655  64.409  26.394  1.00  0.00     0.036 A 
ENDBRANCH   8   9
ENDBRANCH   5   7
BRANCH   4  16
HETATM   16  N3  UNL     1     -20.211  65.719  23.755  1.00  0.00    -0.382 N 
HETATM   17  H4  UNL     1     -19.985  64.700  23.764  1.00  0.00     0.157 HD
HETATM   18  H5  UNL     1     -20.216  66.217  22.837  1.00  0.00     0.157 HD
ENDBRANCH   4  16
BRANCH   2  19
HETATM   19  N1  UNL     1     -20.313  69.851  26.228  1.00  0.00    -0.384 N 
HETATM   20  H2  UNL     1     -21.046  70.517  26.558  1.00  0.00     0.157 HD
HETATM   21  H3  UNL     1     -19.390  70.229  25.920  1.00  0.00     0.157 HD
ENDBRANCH   2  19
TORSDOF 4
ENDMDL
MODEL 8
REMARK VINA RESULT:      -5.8      3.766      5.822
REMARK  4 active torsions:
REMARK  status: ('A' for Active; 'I' for Inactive)
REMARK    1  A    between atoms: C2_2  and  N1_3 
REMARK    2  A    between atoms: C3_7  and  N3_8 
REMARK    3  A    between atoms: C4_11  and  N4_12 
REMARK    4  A    between atoms: N5_13  and  C5_14 
ROOT
HETATM    1  C1  UNL     1     -27.093  64.896  26.000  1.00  0.00     0.052 A 
HETATM    2  C2  UNL     1     -28.174  64.709  25.133  1.00  0.00     0.123 A 
HETATM    3  N2  UNL     1     -28.145  65.261  23.890  1.00  0.00    -0.212 NA
HETATM    4  C3  UNL     1     -27.096  66.010  23.452  1.00  0.00     0.154 A 
HETATM    5  C4  UNL     1     -26.003  66.248  24.307  1.00  0.00     0.124 A 
HETATM    6  C11 UNL     1     -26.003  65.656  25.580  1.00  0.00     0.041 A 
ENDROOT
BRANCH   5   7
HETATM    7  N4  UNL     1     -24.871  67.001  23.840  1.00  0.00    -0.146 NA
HETATM    8  N5  UNL     1     -23.643  66.736  24.083  1.00  0.00    -0.150 NA
BRANCH   8   9
HETATM    9  C5  UNL     1     -23.164  65.736  24.998  1.00  0.00     0.079 A 
HETATM   10  C6  UNL     1     -22.793  66.119  26.293  1.00  0.00     0.036 A 
HETATM   11  C7  UNL     1     -22.358  65.162  27.214  1.00  0.00     0.042 A 
HETATM   12  C8  UNL     1     -22.313  63.811  26.854  1.00  0.00     0.107 A 
HETATM   13  O1  UNL     1     -21.879  62.862  27.770  1.00  0.00    -0.192 OA
HETATM   14  C9  UNL     1     -22.714  63.417  25.574  1.00  0.00     0.042 A 
HETATM   15  C10 UNL     1     -23.151  64.372  24.651  1.00  0.00     0.036 A 
ENDBRANCH   8   9
ENDBRANCH   5   7
BRANCH   4  16
HETATM   16  N3  UNL     1     -27.134  66.557  22.132  1.00  0.00    -0.382 N 
HETATM   17  H4  UNL     1     -26.458  66.224  21.409  1.00  0.00     0.157 HD
HETATM   18  H5  UNL     1     -27.828  67.288  21.860  1.00  0.00     0.157 HD
ENDBRANCH   4  16
BRANCH   2  19
HETATM   19  N1  UNL     1     -29.303  63.935  25.539  1.00  0.00    -0.384 N 
HETATM   20  H2  UNL     1     -30.100  63.765  24.887  1.00  0.00     0.157 HD
HETATM   21  H3  UNL     1     -29.341  63.526  26.500  1.00  0.00     0.157 HD
ENDBRANCH   2  19
TORSDOF 4
ENDMDL
MODEL 9
REMARK VINA RESULT:      -5.8      3.180      3.852
REMARK  4 active torsions:
REMARK  status: ('A' for Active; 'I' for Inactive)
REMARK    1  A    between atoms: C2_2  and  N1_3 
REMARK    2  A    between atoms: C3_7  and  N3_8 
REMARK    3  A    between atoms: C4_11  and  N4_12 
REMARK    4  A    between atoms: N5_13  and  C5_14 
ROOT
HETATM    1  C1  UNL     1     -21.743  62.617  23.459  1.00  0.00     0.052 A 
HETATM    2  C2  UNL     1     -20.505  62.100  23.851  1.00  0.00     0.123 A 
HETATM    3  N2  UNL     1     -20.105  62.214  25.146  1.00  0.00    -0.212 NA
HETATM    4  C3  UNL     1     -20.868  62.830  26.090  1.00  0.00     0.154 A 
HETATM    5  C4  UNL     1     -22.107  63.393  25.728  1.00  0.00     0.124 A 
HETATM    6  C11 UNL     1     -22.548  63.253  24.403  1.00  0.00     0.041 A 
ENDROOT
BRANCH   5   7
HETATM    7  N4  UNL     1     -22.940  64.009  26.724  1.00  0.00    -0.146 NA
HETATM    8  N5  UNL     1     -22.918  65.243  27.061  1.00  0.00    -0.150 NA
BRANCH   8   9
HETATM    9  C5  UNL     1     -21.950  66.214  26.630  1.00  0.00     0.079 A 
HETATM   10  C6  UNL     1     -20.821  66.450  27.425  1.00  0.00     0.036 A 
HETATM   11  C7  UNL     1     -19.847  67.364  27.013  1.00  0.00     0.042 A 
HETATM   12  C8  UNL     1     -19.982  68.030  25.790  1.00  0.00     0.107 A 
HETATM   13  O1  UNL     1     -19.014  68.938  25.382  1.00  0.00    -0.192 OA
HETATM   14  C9  UNL     1     -21.089  67.774  24.976  1.00  0.00     0.042 A 
HETATM   15  C10 UNL     1     -22.065  66.861  25.385  1.00  0.00     0.036 A 
ENDBRANCH   8   9
ENDBRANCH   5   7
BRANCH   4  16
HETATM   16  N3  UNL     1     -20.384  62.911  27.433  1.00  0.00    -0.382 N 
HETATM   17  H4  UNL     1     -20.643  62.175  28.126  1.00  0.00     0.157 HD
HETATM   18  H5  UNL     1     -19.768  63.693  27.749  1.00  0.00     0.157 HD
ENDBRANCH   4  16
BRANCH   2  19
HETATM   19  N1  UNL     1     -19.661  61.444  22.903  1.00  0.00    -0.384 N 
HETATM   20  H2  UNL     1     -19.978  61.284  21.922  1.00  0.00     0.157 HD
HETATM   21  H3  UNL     1     -18.711  61.116  23.186  1.00  0.00     0.157 HD
ENDBRANCH   2  19
TORSDOF 4
ENDMDL
