MODEL 1
REMARK VINA RESULT:      -6.9      0.000      0.000
REMARK  1 active torsions:
REMARK  status: ('A' for Active; 'I' for Inactive)
REMARK    1  A    between atoms: N1_11  and  O2_12 
ROOT
HETATM    1  C1  UNL     1     -27.863  64.463  25.832  1.00  0.00     0.045 A 
HETATM    2  C2  UNL     1     -28.250  65.196  24.782  1.00  0.00    -0.009 A 
HETATM    3  C3  UNL     1     -29.667  65.116  24.285  1.00  0.00     0.052 C 
HETATM    4  C4  UNL     1     -27.257  66.027  24.065  1.00  0.00     0.184 A 
HETATM    5  O1  UNL     1     -27.619  66.691  23.055  1.00  0.00    -0.287 OA
HETATM    6  C5  UNL     1     -25.845  66.082  24.528  1.00  0.00    -0.003 A 
HETATM    7  C6  UNL     1     -24.861  66.954  23.780  1.00  0.00     0.053 C 
HETATM    8  C7  UNL     1     -25.474  65.391  25.637  1.00  0.00    -0.021 A 
HETATM    9  C8  UNL     1     -24.053  65.450  26.155  1.00  0.00     0.051 C 
HETATM   10  C9  UNL     1     -26.464  64.507  26.318  1.00  0.00     0.091 A 
HETATM   11  N1  UNL     1     -26.092  63.774  27.324  1.00  0.00    -0.134 NA
ENDROOT
BRANCH  11  12
HETATM   12  O2  UNL     1     -26.957  62.933  27.990  1.00  0.00    -0.261 OA
HETATM   13  C10 UNL     1     -26.457  61.838  28.738  1.00  0.00     0.240 C 
ENDBRANCH  11  12
TORSDOF 1
ENDMDL
MODEL 2
REMARK VINA RESULT:      -6.9      2.386      4.096
REMARK  1 active torsions:
REMARK  status: ('A' for Active; 'I' for Inactive)
REMARK    1  A    between atoms: N1_11  and  O2_12 
ROOT
HETATM    1  C1  UNL     1     -25.181  65.002  26.217  1.00  0.00     0.045 A 
HETATM    2  C2  UNL     1     -26.351  64.445  26.548  1.00  0.00    -0.009 A 
HETATM    3  C3  UNL     1     -26.425  63.455  27.678  1.00  0.00     0.052 C 
HETATM    4  C4  UNL     1     -27.557  64.747  25.745  1.00  0.00     0.184 A 
HETATM    5  O1  UNL     1     -28.651  64.194  26.040  1.00  0.00    -0.287 OA
HETATM    6  C5  UNL     1     -27.483  65.697  24.602  1.00  0.00    -0.003 A 
HETATM    7  C6  UNL     1     -28.740  65.995  23.814  1.00  0.00     0.053 C 
HETATM    8  C7  UNL     1     -26.307  66.314  24.316  1.00  0.00    -0.021 A 
HETATM    9  C8  UNL     1     -26.205  67.310  23.181  1.00  0.00     0.051 C 
HETATM   10  C9  UNL     1     -25.083  65.957  25.089  1.00  0.00     0.091 A 
HETATM   11  N1  UNL     1     -23.937  66.476  24.761  1.00  0.00    -0.134 NA
ENDROOT
BRANCH  11  12
HETATM   12  O2  UNL     1     -22.769  66.182  25.431  1.00  0.00    -0.261 OA
HETATM   13  C10 UNL     1     -21.795  67.187  25.647  1.00  0.00     0.240 C 
ENDBRANCH  11  12
TORSDOF 1
ENDMDL
MODEL 3
REMARK VINA RESULT:      -6.9      1.174      3.012
REMARK  1 active torsions:
REMARK  status: ('A' for Active; 'I' for Inactive)
REMARK    1  A    between atoms: N1_11  and  O2_12 
ROOT
HETATM    1  C1  UNL     1     -24.936  65.116  26.097  1.00  0.00     0.045 A 
HETATM    2  C2  UNL     1     -24.758  65.981  25.092  1.00  0.00    -0.009 A 
HETATM    3  C3  UNL     1     -23.391  66.540  24.808  1.00  0.00     0.052 C 
HETATM    4  C4  UNL     1     -25.927  66.445  24.312  1.00  0.00     0.184 A 
HETATM    5  O1  UNL     1     -25.761  67.286  23.387  1.00  0.00    -0.287 OA
HETATM    6  C5  UNL     1     -27.288  65.923  24.612  1.00  0.00    -0.003 A 
HETATM    7  C6  UNL     1     -28.458  66.408  23.783  1.00  0.00     0.053 C 
HETATM    8  C7  UNL     1     -27.451  64.992  25.587  1.00  0.00    -0.021 A 
HETATM    9  C8  UNL     1     -28.817  64.417  25.896  1.00  0.00     0.051 C 
HETATM   10  C9  UNL     1     -26.280  64.577  26.410  1.00  0.00     0.091 A 
HETATM   11  N1  UNL     1     -26.445  63.754  27.403  1.00  0.00    -0.134 NA
ENDROOT
BRANCH  11  12
HETATM   12  O2  UNL     1     -25.405  63.337  28.204  1.00  0.00    -0.261 OA
HETATM   13  C10 UNL     1     -25.025  61.973  28.232  1.00  0.00     0.240 C 
ENDBRANCH  11  12
TORSDOF 1
ENDMDL
MODEL 4
REMARK VINA RESULT:      -6.7      1.584      3.208
REMARK  1 active torsions:
REMARK  status: ('A' for Active; 'I' for Inactive)
REMARK    1  A    between atoms: N1_11  and  O2_12 
ROOT
HETATM    1  C1  UNL     1     -25.411  65.977  24.957  1.00  0.00     0.045 A 
HETATM    2  C2  UNL     1     -26.125  66.398  23.908  1.00  0.00    -0.009 A 
HETATM    3  C3  UNL     1     -25.508  67.321  22.893  1.00  0.00     0.052 C 
HETATM    4  C4  UNL     1     -27.549  66.013  23.792  1.00  0.00     0.184 A 
HETATM    5  O1  UNL     1     -28.229  66.439  22.818  1.00  0.00    -0.287 OA
HETATM    6  C5  UNL     1     -28.177  65.130  24.812  1.00  0.00    -0.003 A 
HETATM    7  C6  UNL     1     -29.631  64.744  24.652  1.00  0.00     0.053 C 
HETATM    8  C7  UNL     1     -27.427  64.649  25.837  1.00  0.00    -0.021 A 
HETATM    9  C8  UNL     1     -28.026  63.723  26.874  1.00  0.00     0.051 C 
HETATM   10  C9  UNL     1     -26.010  65.091  25.982  1.00  0.00     0.091 A 
HETATM   11  N1  UNL     1     -25.315  64.707  27.010  1.00  0.00    -0.134 NA
ENDROOT
BRANCH  11  12
HETATM   12  O2  UNL     1     -24.004  65.085  27.204  1.00  0.00    -0.261 OA
HETATM   13  C10 UNL     1     -23.016  64.116  27.507  1.00  0.00     0.240 C 
ENDBRANCH  11  12
TORSDOF 1
ENDMDL
MODEL 5
REMARK VINA RESULT:      -6.7      1.365      1.616
REMARK  1 active torsions:
REMARK  status: ('A' for Active; 'I' for Inactive)
REMARK    1  A    between atoms: N1_11  and  O2_12 
ROOT
HETATM    1  C1  UNL     1     -27.312  65.151  25.301  1.00  0.00     0.045 A 
HETATM    2  C2  UNL     1     -26.990  65.902  24.242  1.00  0.00    -0.009 A 
HETATM    3  C3  UNL     1     -28.035  66.256  23.219  1.00  0.00     0.052 C 
HETATM    4  C4  UNL     1     -25.584  66.318  24.042  1.00  0.00     0.184 A 
HETATM    5  O1  UNL     1     -25.278  66.999  23.025  1.00  0.00    -0.287 OA
HETATM    6  C5  UNL     1     -24.538  65.941  25.031  1.00  0.00    -0.003 A 
HETATM    7  C6  UNL     1     -23.114  66.398  24.802  1.00  0.00     0.053 C 
HETATM    8  C7  UNL     1     -24.885  65.238  26.140  1.00  0.00    -0.021 A 
HETATM    9  C8  UNL     1     -23.852  64.866  27.182  1.00  0.00     0.051 C 
HETATM   10  C9  UNL     1     -26.291  64.769  26.304  1.00  0.00     0.091 A 
HETATM   11  N1  UNL     1     -26.609  64.019  27.317  1.00  0.00    -0.134 NA
ENDROOT
BRANCH  11  12
HETATM   12  O2  UNL     1     -27.888  63.549  27.520  1.00  0.00    -0.261 OA
HETATM   13  C10 UNL     1     -28.427  63.484  28.828  1.00  0.00     0.240 C 
ENDBRANCH  11  12
TORSDOF 1
ENDMDL
MODEL 6
REMARK VINA RESULT:      -6.6      2.038      3.578
REMARK  1 active torsions:
REMARK  status: ('A' for Active; 'I' for Inactive)
REMARK    1  A    between atoms: N1_11  and  O2_12 
ROOT
HETATM    1  C1  UNL     1     -24.906  66.209  24.717  1.00  0.00     0.045 A 
HETATM    2  C2  UNL     1     -26.017  66.385  23.995  1.00  0.00    -0.009 A 
HETATM    3  C3  UNL     1     -25.994  67.261  22.772  1.00  0.00     0.052 C 
HETATM    4  C4  UNL     1     -27.288  65.778  24.449  1.00  0.00     0.184 A 
HETATM    5  O1  UNL     1     -28.341  65.974  23.783  1.00  0.00    -0.287 OA
HETATM    6  C5  UNL     1     -27.327  64.941  25.679  1.00  0.00    -0.003 A 
HETATM    7  C6  UNL     1     -28.641  64.323  26.104  1.00  0.00     0.053 C 
HETATM    8  C7  UNL     1     -26.180  64.708  26.369  1.00  0.00    -0.021 A 
HETATM    9  C8  UNL     1     -26.178  63.835  27.605  1.00  0.00     0.051 C 
HETATM   10  C9  UNL     1     -24.916  65.374  25.941  1.00  0.00     0.091 A 
HETATM   11  N1  UNL     1     -23.836  65.227  26.649  1.00  0.00    -0.134 NA
ENDROOT
BRANCH  11  12
HETATM   12  O2  UNL     1     -22.640  65.821  26.310  1.00  0.00    -0.261 OA
HETATM   13  C10 UNL     1     -21.430  65.089  26.390  1.00  0.00     0.240 C 
ENDBRANCH  11  12
TORSDOF 1
ENDMDL
MODEL 7
REMARK VINA RESULT:      -6.6      1.932      5.339
REMARK  1 active torsions:
REMARK  status: ('A' for Active; 'I' for Inactive)
REMARK    1  A    between atoms: N1_11  and  O2_12 
ROOT
HETATM    1  C1  UNL     1     -24.555  64.477  25.959  1.00  0.00     0.045 A 
HETATM    2  C2  UNL     1     -24.188  63.463  26.751  1.00  0.00    -0.009 A 
HETATM    3  C3  UNL     1     -22.765  62.977  26.747  1.00  0.00     0.052 C 
HETATM    4  C4  UNL     1     -25.207  62.772  27.572  1.00  0.00     0.184 A 
HETATM    5  O1  UNL     1     -24.863  61.795  28.292  1.00  0.00    -0.287 OA
HETATM    6  C5  UNL     1     -26.624  63.225  27.553  1.00  0.00    -0.003 A 
HETATM    7  C6  UNL     1     -27.636  62.504  28.418  1.00  0.00     0.053 C 
HETATM    8  C7  UNL     1     -26.976  64.299  26.801  1.00  0.00    -0.021 A 
HETATM    9  C8  UNL     1     -28.403  64.806  26.784  1.00  0.00     0.051 C 
HETATM   10  C9  UNL     1     -25.958  64.951  25.928  1.00  0.00     0.091 A 
HETATM   11  N1  UNL     1     -26.309  65.922  25.139  1.00  0.00    -0.134 NA
ENDROOT
BRANCH  11  12
HETATM   12  O2  UNL     1     -25.417  66.561  24.305  1.00  0.00    -0.261 OA
HETATM   13  C10 UNL     1     -25.885  67.418  23.279  1.00  0.00     0.240 C 
ENDBRANCH  11  12
TORSDOF 1
ENDMDL
MODEL 8
REMARK VINA RESULT:      -6.4      1.939      2.249
REMARK  1 active torsions:
REMARK  status: ('A' for Active; 'I' for Inactive)
REMARK    1  A    between atoms: N1_11  and  O2_12 
ROOT
HETATM    1  C1  UNL     1     -25.959  64.603  26.818  1.00  0.00     0.045 A 
HETATM    2  C2  UNL     1     -27.070  64.824  26.107  1.00  0.00    -0.009 A 
HETATM    3  C3  UNL     1     -28.374  64.204  26.528  1.00  0.00     0.052 C 
HETATM    4  C4  UNL     1     -26.993  65.618  24.860  1.00  0.00     0.184 A 
HETATM    5  O1  UNL     1     -28.037  65.797  24.175  1.00  0.00    -0.287 OA
HETATM    6  C5  UNL     1     -25.699  66.204  24.418  1.00  0.00    -0.003 A 
HETATM    7  C6  UNL     1     -25.662  67.023  23.146  1.00  0.00     0.053 C 
HETATM    8  C7  UNL     1     -24.589  66.034  25.182  1.00  0.00    -0.021 A 
HETATM    9  C8  UNL     1     -23.264  66.644  24.778  1.00  0.00     0.051 C 
HETATM   10  C9  UNL     1     -24.660  65.182  26.403  1.00  0.00     0.091 A 
HETATM   11  N1  UNL     1     -23.582  64.942  27.088  1.00  0.00    -0.134 NA
ENDROOT
BRANCH  11  12
HETATM   12  O2  UNL     1     -23.581  64.158  28.221  1.00  0.00    -0.261 OA
HETATM   13  C10 UNL     1     -22.635  63.113  28.367  1.00  0.00     0.240 C 
ENDBRANCH  11  12
TORSDOF 1
ENDMDL
MODEL 9
REMARK VINA RESULT:      -6.3      2.532      4.210
REMARK  1 active torsions:
REMARK  status: ('A' for Active; 'I' for Inactive)
REMARK    1  A    between atoms: N1_11  and  O2_12 
ROOT
HETATM    1  C1  UNL     1     -24.420  64.569  25.786  1.00  0.00     0.045 A 
HETATM    2  C2  UNL     1     -25.635  65.100  25.611  1.00  0.00    -0.009 A 
HETATM    3  C3  UNL     1     -25.829  66.250  24.662  1.00  0.00     0.052 C 
HETATM    4  C4  UNL     1     -26.773  64.601  26.416  1.00  0.00     0.184 A 
HETATM    5  O1  UNL     1     -27.910  65.127  26.273  1.00  0.00    -0.287 OA
HETATM    6  C5  UNL     1     -26.580  63.488  27.384  1.00  0.00    -0.003 A 
HETATM    7  C6  UNL     1     -27.770  62.994  28.179  1.00  0.00     0.053 C 
HETATM    8  C7  UNL     1     -25.360  62.906  27.505  1.00  0.00    -0.021 A 
HETATM    9  C8  UNL     1     -25.137  61.750  28.457  1.00  0.00     0.051 C 
HETATM   10  C9  UNL     1     -24.204  63.454  26.738  1.00  0.00     0.091 A 
HETATM   11  N1  UNL     1     -23.015  62.960  26.917  1.00  0.00    -0.134 NA
ENDROOT
BRANCH  11  12
HETATM   12  O2  UNL     1     -21.908  63.427  26.244  1.00  0.00    -0.261 OA
HETATM   13  C10 UNL     1     -20.867  62.540  25.875  1.00  0.00     0.240 C 
ENDBRANCH  11  12
TORSDOF 1
ENDMDL
