MODEL 1
REMARK VINA RESULT:      -6.0      0.000      0.000
REMARK  2 active torsions:
REMARK  status: ('A' for Active; 'I' for Inactive)
REMARK    1  A    between atoms: O1_2  and  C1_3 
REMARK    2  A    between atoms: C5_9  and  N3_10 
REMARK       I    between atoms: N3_10  and  C6_12 
REMARK       I    between atoms: C6_12  and  N4_14 
ROOT
HETATM    1  C1  UNL     1     -26.733  65.817  24.705  1.00  0.00     0.171 A 
HETATM    2  N1  UNL     1     -27.694  66.031  23.864  1.00  0.00    -0.252 N 
HETATM    3  C2  UNL     1     -29.081  65.610  24.011  1.00  0.00     0.182 C 
HETATM    4  N2  UNL     1     -27.214  66.743  22.755  1.00  0.00    -0.182 NA
HETATM    5  C3  UNL     1     -25.949  66.970  22.914  1.00  0.00     0.156 A 
HETATM    6  C4  UNL     1     -25.508  66.398  24.186  1.00  0.00     0.051 A 
HETATM    7  C5  UNL     1     -24.298  66.393  24.752  1.00  0.00     0.110 C 
ENDROOT
BRANCH   1   8
HETATM    8  O1  UNL     1     -26.865  65.137  25.916  1.00  0.00    -0.344 OA
HETATM    9  H1  UNL     1     -26.575  64.173  26.020  1.00  0.00     0.219 HD
ENDBRANCH   1   8
BRANCH   7  10
HETATM   10  N3  UNL     1     -23.163  67.009  24.125  1.00  0.00    -0.318 N 
HETATM   11  H7  UNL     1     -23.295  67.625  23.292  1.00  0.00     0.170 HD
HETATM   12  C6  UNL     1     -21.828  66.807  24.606  1.00  0.00     0.317 C 
HETATM   13  O2  UNL     1     -21.613  66.072  25.609  1.00  0.00    -0.247 OA
HETATM   14  N4  UNL     1     -20.730  67.439  23.952  1.00  0.00    -0.352 N 
HETATM   15  H8  UNL     1     -20.887  68.050  23.120  1.00  0.00     0.160 HD
HETATM   16  H9  UNL     1     -19.755  67.296  24.297  1.00  0.00     0.160 HD
ENDBRANCH   7  10
TORSDOF 2
ENDMDL
MODEL 2
REMARK VINA RESULT:      -5.9      3.722      5.135
REMARK  2 active torsions:
REMARK  status: ('A' for Active; 'I' for Inactive)
REMARK    1  A    between atoms: O1_2  and  C1_3 
REMARK    2  A    between atoms: C5_9  and  N3_10 
REMARK       I    between atoms: N3_10  and  C6_12 
REMARK       I    between atoms: C6_12  and  N4_14 
ROOT
HETATM    1  C1  UNL     1     -27.594  63.817  27.495  1.00  0.00     0.171 A 
HETATM    2  N1  UNL     1     -26.706  63.192  28.200  1.00  0.00    -0.252 N 
HETATM    3  C2  UNL     1     -26.951  62.413  29.407  1.00  0.00     0.182 C 
HETATM    4  N2  UNL     1     -25.433  63.367  27.637  1.00  0.00    -0.182 NA
HETATM    5  C3  UNL     1     -25.538  64.104  26.577  1.00  0.00     0.156 A 
HETATM    6  C4  UNL     1     -26.940  64.470  26.376  1.00  0.00     0.051 A 
HETATM    7  C5  UNL     1     -27.504  65.213  25.419  1.00  0.00     0.110 C 
ENDROOT
BRANCH   1   8
HETATM    8  O1  UNL     1     -28.960  63.850  27.775  1.00  0.00    -0.344 OA
HETATM    9  H1  UNL     1     -29.343  64.454  28.491  1.00  0.00     0.219 HD
ENDBRANCH   1   8
BRANCH   7  10
HETATM   10  N3  UNL     1     -26.735  65.805  24.362  1.00  0.00    -0.318 N 
HETATM   11  H7  UNL     1     -25.695  65.863  24.441  1.00  0.00     0.170 HD
HETATM   12  C6  UNL     1     -27.349  66.330  23.179  1.00  0.00     0.317 C 
HETATM   13  O2  UNL     1     -28.601  66.284  23.033  1.00  0.00    -0.247 OA
HETATM   14  N4  UNL     1     -26.545  66.910  22.154  1.00  0.00    -0.352 N 
HETATM   15  H8  UNL     1     -25.507  66.957  22.256  1.00  0.00     0.160 HD
HETATM   16  H9  UNL     1     -26.986  67.294  21.289  1.00  0.00     0.160 HD
ENDBRANCH   7  10
TORSDOF 2
ENDMDL
MODEL 3
REMARK VINA RESULT:      -5.8      3.330      5.575
REMARK  2 active torsions:
REMARK  status: ('A' for Active; 'I' for Inactive)
REMARK    1  A    between atoms: O1_2  and  C1_3 
REMARK    2  A    between atoms: C5_9  and  N3_10 
REMARK       I    between atoms: N3_10  and  C6_12 
REMARK       I    between atoms: C6_12  and  N4_14 
ROOT
HETATM    1  C1  UNL     1     -27.444  66.334  24.152  1.00  0.00     0.171 A 
HETATM    2  N1  UNL     1     -26.218  66.739  24.062  1.00  0.00    -0.252 N 
HETATM    3  C2  UNL     1     -25.703  67.736  23.132  1.00  0.00     0.182 C 
HETATM    4  N2  UNL     1     -25.420  66.072  25.004  1.00  0.00    -0.182 NA
HETATM    5  C3  UNL     1     -26.160  65.252  25.679  1.00  0.00     0.156 A 
HETATM    6  C4  UNL     1     -27.540  65.335  25.202  1.00  0.00     0.051 A 
HETATM    7  C5  UNL     1     -28.629  64.675  25.606  1.00  0.00     0.110 C 
ENDROOT
BRANCH   1   8
HETATM    8  O1  UNL     1     -28.499  66.791  23.363  1.00  0.00    -0.344 OA
HETATM    9  H1  UNL     1     -28.409  67.610  22.774  1.00  0.00     0.219 HD
ENDBRANCH   1   8
BRANCH   7  10
HETATM   10  N3  UNL     1     -28.584  63.706  26.663  1.00  0.00    -0.318 N 
HETATM   11  H7  UNL     1     -28.322  62.717  26.455  1.00  0.00     0.170 HD
HETATM   12  C6  UNL     1     -28.889  64.050  28.020  1.00  0.00     0.317 C 
HETATM   13  O2  UNL     1     -29.211  65.230  28.325  1.00  0.00    -0.247 OA
HETATM   14  N4  UNL     1     -28.831  63.053  29.039  1.00  0.00    -0.352 N 
HETATM   15  H8  UNL     1     -28.566  62.070  28.806  1.00  0.00     0.160 HD
HETATM   16  H9  UNL     1     -29.052  63.296  30.030  1.00  0.00     0.160 HD
ENDBRANCH   7  10
TORSDOF 2
ENDMDL
MODEL 4
REMARK VINA RESULT:      -5.5      2.752      5.006
REMARK  2 active torsions:
REMARK  status: ('A' for Active; 'I' for Inactive)
REMARK    1  A    between atoms: O1_2  and  C1_3 
REMARK    2  A    between atoms: C5_9  and  N3_10 
REMARK       I    between atoms: N3_10  and  C6_12 
REMARK       I    between atoms: C6_12  and  N4_14 
ROOT
HETATM    1  C1  UNL     1     -23.083  65.804  26.462  1.00  0.00     0.171 A 
HETATM    2  N1  UNL     1     -23.339  65.092  27.512  1.00  0.00    -0.252 N 
HETATM    3  C2  UNL     1     -22.512  64.985  28.707  1.00  0.00     0.182 C 
HETATM    4  N2  UNL     1     -24.555  64.410  27.348  1.00  0.00    -0.182 NA
HETATM    5  C3  UNL     1     -25.051  64.707  26.189  1.00  0.00     0.156 A 
HETATM    6  C4  UNL     1     -24.156  65.635  25.498  1.00  0.00     0.051 A 
HETATM    7  C5  UNL     1     -24.268  66.198  24.292  1.00  0.00     0.110 C 
ENDROOT
BRANCH   1   8
HETATM    8  O1  UNL     1     -21.954  66.605  26.293  1.00  0.00    -0.344 OA
HETATM    9  H1  UNL     1     -21.761  67.390  26.902  1.00  0.00     0.219 HD
ENDBRANCH   1   8
BRANCH   7  10
HETATM   10  N3  UNL     1     -25.390  65.941  23.434  1.00  0.00    -0.318 N 
HETATM   11  H7  UNL     1     -25.671  64.959  23.219  1.00  0.00     0.170 HD
HETATM   12  C6  UNL     1     -26.155  67.002  22.850  1.00  0.00     0.317 C 
HETATM   13  O2  UNL     1     -25.859  68.207  23.077  1.00  0.00    -0.247 OA
HETATM   14  N4  UNL     1     -27.263  66.701  22.002  1.00  0.00    -0.352 N 
HETATM   15  H8  UNL     1     -27.524  65.710  21.802  1.00  0.00     0.160 HD
HETATM   16  H9  UNL     1     -27.825  67.469  21.573  1.00  0.00     0.160 HD
ENDBRANCH   7  10
TORSDOF 2
ENDMDL
MODEL 5
REMARK VINA RESULT:      -5.5      2.197      2.501
REMARK  2 active torsions:
REMARK  status: ('A' for Active; 'I' for Inactive)
REMARK    1  A    between atoms: O1_2  and  C1_3 
REMARK    2  A    between atoms: C5_9  and  N3_10 
REMARK       I    between atoms: N3_10  and  C6_12 
REMARK       I    between atoms: C6_12  and  N4_14 
ROOT
HETATM    1  C1  UNL     1     -25.449  66.633  23.756  1.00  0.00     0.171 A 
HETATM    2  N1  UNL     1     -26.577  66.086  24.075  1.00  0.00    -0.252 N 
HETATM    3  C2  UNL     1     -27.816  66.149  23.310  1.00  0.00     0.182 C 
HETATM    4  N2  UNL     1     -26.454  65.401  25.293  1.00  0.00    -0.182 NA
HETATM    5  C3  UNL     1     -25.240  65.527  25.727  1.00  0.00     0.156 A 
HETATM    6  C4  UNL     1     -24.466  66.333  24.782  1.00  0.00     0.051 A 
HETATM    7  C5  UNL     1     -23.186  66.713  24.825  1.00  0.00     0.110 C 
ENDROOT
BRANCH   1   8
HETATM    8  O1  UNL     1     -25.221  67.388  22.605  1.00  0.00    -0.344 OA
HETATM    9  H1  UNL     1     -24.451  68.042  22.540  1.00  0.00     0.219 HD
ENDBRANCH   1   8
BRANCH   7  10
HETATM   10  N3  UNL     1     -22.319  66.344  25.907  1.00  0.00    -0.318 N 
HETATM   11  H7  UNL     1     -22.367  65.382  26.312  1.00  0.00     0.170 HD
HETATM   12  C6  UNL     1     -21.371  67.261  26.466  1.00  0.00     0.317 C 
HETATM   13  O2  UNL     1     -21.272  68.435  26.014  1.00  0.00    -0.247 OA
HETATM   14  N4  UNL     1     -20.529  66.851  27.542  1.00  0.00    -0.352 N 
HETATM   15  H8  UNL     1     -20.595  65.884  27.929  1.00  0.00     0.160 HD
HETATM   16  H9  UNL     1     -19.836  67.515  27.953  1.00  0.00     0.160 HD
ENDBRANCH   7  10
TORSDOF 2
ENDMDL
MODEL 6
REMARK VINA RESULT:      -5.5      3.326      4.754
REMARK  2 active torsions:
REMARK  status: ('A' for Active; 'I' for Inactive)
REMARK    1  A    between atoms: O1_2  and  C1_3 
REMARK    2  A    between atoms: C5_9  and  N3_10 
REMARK       I    between atoms: N3_10  and  C6_12 
REMARK       I    between atoms: C6_12  and  N4_14 
ROOT
HETATM    1  C1  UNL     1     -25.925  64.248  27.665  1.00  0.00     0.171 A 
HETATM    2  N1  UNL     1     -26.735  63.515  28.358  1.00  0.00    -0.252 N 
HETATM    3  C2  UNL     1     -26.453  62.895  29.647  1.00  0.00     0.182 C 
HETATM    4  N2  UNL     1     -27.961  63.385  27.688  1.00  0.00    -0.182 NA
HETATM    5  C3  UNL     1     -27.905  64.044  26.575  1.00  0.00     0.156 A 
HETATM    6  C4  UNL     1     -26.589  64.669  26.444  1.00  0.00     0.051 A 
HETATM    7  C5  UNL     1     -26.095  65.433  25.466  1.00  0.00     0.110 C 
ENDROOT
BRANCH   1   8
HETATM    8  O1  UNL     1     -24.622  64.578  28.039  1.00  0.00    -0.344 OA
HETATM    9  H1  UNL     1     -24.378  65.507  28.358  1.00  0.00     0.219 HD
ENDBRANCH   1   8
BRANCH   7  10
HETATM   10  N3  UNL     1     -26.866  65.775  24.305  1.00  0.00    -0.318 N 
HETATM   11  H7  UNL     1     -27.885  65.550  24.268  1.00  0.00     0.170 HD
HETATM   12  C6  UNL     1     -26.280  66.426  23.170  1.00  0.00     0.317 C 
HETATM   13  O2  UNL     1     -25.054  66.720  23.163  1.00  0.00    -0.247 OA
HETATM   14  N4  UNL     1     -27.085  66.747  22.037  1.00  0.00    -0.352 N 
HETATM   15  H8  UNL     1     -28.102  66.511  22.024  1.00  0.00     0.160 HD
HETATM   16  H9  UNL     1     -26.665  67.221  21.207  1.00  0.00     0.160 HD
ENDBRANCH   7  10
TORSDOF 2
ENDMDL
MODEL 7
REMARK VINA RESULT:      -5.4      2.098      5.584
REMARK  2 active torsions:
REMARK  status: ('A' for Active; 'I' for Inactive)
REMARK    1  A    between atoms: O1_2  and  C1_3 
REMARK    2  A    between atoms: C5_9  and  N3_10 
REMARK       I    between atoms: N3_10  and  C6_12 
REMARK       I    between atoms: C6_12  and  N4_14 
ROOT
HETATM    1  C1  UNL     1     -23.486  66.168  24.967  1.00  0.00     0.171 A 
HETATM    2  N1  UNL     1     -22.777  65.496  25.816  1.00  0.00    -0.252 N 
HETATM    3  C2  UNL     1     -21.333  65.578  25.994  1.00  0.00     0.182 C 
HETATM    4  N2  UNL     1     -23.602  64.646  26.568  1.00  0.00    -0.182 NA
HETATM    5  C3  UNL     1     -24.828  64.798  26.180  1.00  0.00     0.156 A 
HETATM    6  C4  UNL     1     -24.881  65.794  25.109  1.00  0.00     0.051 A 
HETATM    7  C5  UNL     1     -25.927  66.259  24.421  1.00  0.00     0.110 C 
ENDROOT
BRANCH   1   8
HETATM    8  O1  UNL     1     -22.980  67.103  24.064  1.00  0.00    -0.344 OA
HETATM    9  H1  UNL     1     -22.221  66.879  23.433  1.00  0.00     0.219 HD
ENDBRANCH   1   8
BRANCH   7  10
HETATM   10  N3  UNL     1     -27.264  65.798  24.664  1.00  0.00    -0.318 N 
HETATM   11  H7  UNL     1     -27.514  65.381  25.588  1.00  0.00     0.170 HD
HETATM   12  C6  UNL     1     -28.291  65.891  23.669  1.00  0.00     0.317 C 
HETATM   13  O2  UNL     1     -28.043  66.387  22.537  1.00  0.00    -0.247 OA
HETATM   14  N4  UNL     1     -29.607  65.420  23.956  1.00  0.00    -0.352 N 
HETATM   15  H8  UNL     1     -29.832  65.006  24.888  1.00  0.00     0.160 HD
HETATM   16  H9  UNL     1     -30.360  65.485  23.236  1.00  0.00     0.160 HD
ENDBRANCH   7  10
TORSDOF 2
ENDMDL
MODEL 8
REMARK VINA RESULT:      -5.2      3.479      4.965
REMARK  2 active torsions:
REMARK  status: ('A' for Active; 'I' for Inactive)
REMARK    1  A    between atoms: O1_2  and  C1_3 
REMARK    2  A    between atoms: C5_9  and  N3_10 
REMARK       I    between atoms: N3_10  and  C6_12 
REMARK       I    between atoms: C6_12  and  N4_14 
ROOT
HETATM    1  C1  UNL     1     -26.627  65.804  24.875  1.00  0.00     0.171 A 
HETATM    2  N1  UNL     1     -25.731  66.465  24.215  1.00  0.00    -0.252 N 
HETATM    3  C2  UNL     1     -25.962  67.304  23.046  1.00  0.00     0.182 C 
HETATM    4  N2  UNL     1     -24.465  66.265  24.786  1.00  0.00    -0.182 NA
HETATM    5  C3  UNL     1     -24.583  65.475  25.805  1.00  0.00     0.156 A 
HETATM    6  C4  UNL     1     -25.986  65.096  25.969  1.00  0.00     0.051 A 
HETATM    7  C5  UNL     1     -26.561  64.304  26.879  1.00  0.00     0.110 C 
ENDROOT
BRANCH   1   8
HETATM    8  O1  UNL     1     -27.989  65.781  24.575  1.00  0.00    -0.344 OA
HETATM    9  H1  UNL     1     -28.432  66.526  24.053  1.00  0.00     0.219 HD
ENDBRANCH   1   8
BRANCH   7  10
HETATM   10  N3  UNL     1     -25.804  63.661  27.914  1.00  0.00    -0.318 N 
HETATM   11  H7  UNL     1     -24.849  64.007  28.157  1.00  0.00     0.170 HD
HETATM   12  C6  UNL     1     -26.318  62.540  28.644  1.00  0.00     0.317 C 
HETATM   13  O2  UNL     1     -27.466  62.083  28.391  1.00  0.00    -0.247 OA
HETATM   14  N4  UNL     1     -25.530  61.932  29.666  1.00  0.00    -0.352 N 
HETATM   15  H8  UNL     1     -24.577  62.296  29.890  1.00  0.00     0.160 HD
HETATM   16  H9  UNL     1     -25.898  61.115  30.201  1.00  0.00     0.160 HD
ENDBRANCH   7  10
TORSDOF 2
ENDMDL
MODEL 9
REMARK VINA RESULT:      -5.1      3.896      5.136
REMARK  2 active torsions:
REMARK  status: ('A' for Active; 'I' for Inactive)
REMARK    1  A    between atoms: O1_2  and  C1_3 
REMARK    2  A    between atoms: C5_9  and  N3_10 
REMARK       I    between atoms: N3_10  and  C6_12 
REMARK       I    between atoms: C6_12  and  N4_14 
ROOT
HETATM    1  C1  UNL     1     -26.763  65.400  25.496  1.00  0.00     0.171 A 
HETATM    2  N1  UNL     1     -27.966  65.572  25.051  1.00  0.00    -0.252 N 
HETATM    3  C2  UNL     1     -28.382  66.520  24.025  1.00  0.00     0.182 C 
HETATM    4  N2  UNL     1     -28.852  64.702  25.705  1.00  0.00    -0.182 NA
HETATM    5  C3  UNL     1     -28.188  63.988  26.558  1.00  0.00     0.156 A 
HETATM    6  C4  UNL     1     -26.775  64.363  26.512  1.00  0.00     0.051 A 
HETATM    7  C5  UNL     1     -25.739  63.892  27.212  1.00  0.00     0.110 C 
ENDROOT
BRANCH   1   8
HETATM    8  O1  UNL     1     -25.640  66.103  25.061  1.00  0.00    -0.344 OA
HETATM    9  H1  UNL     1     -25.383  66.146  24.083  1.00  0.00     0.219 HD
ENDBRANCH   1   8
BRANCH   7  10
HETATM   10  N3  UNL     1     -25.892  62.857  28.194  1.00  0.00    -0.318 N 
HETATM   11  H7  UNL     1     -25.882  61.854  27.904  1.00  0.00     0.170 HD
HETATM   12  C6  UNL     1     -26.061  63.152  29.586  1.00  0.00     0.317 C 
HETATM   13  O2  UNL     1     -26.079  64.347  29.990  1.00  0.00    -0.247 OA
HETATM   14  N4  UNL     1     -26.209  62.091  30.528  1.00  0.00    -0.352 N 
HETATM   15  H8  UNL     1     -26.196  61.095  30.213  1.00  0.00     0.160 HD
HETATM   16  H9  UNL     1     -26.333  62.299  31.544  1.00  0.00     0.160 HD
ENDBRANCH   7  10
TORSDOF 2
ENDMDL
