MODEL 1
REMARK VINA RESULT:      -7.3      0.000      0.000
REMARK  0 active torsions:
REMARK  status: ('A' for Active; 'I' for Inactive)
ROOT
HETATM    1  O1  UNL     1     -25.607  67.373  22.500  1.00  0.00    -0.191 OA
HETATM    2  C1  UNL     1     -25.528  66.651  23.687  1.00  0.00     0.121 A 
HETATM    3  C2  UNL     1     -24.307  66.578  24.362  1.00  0.00     0.060 A 
HETATM    4  C3  UNL     1     -24.219  65.858  25.554  1.00  0.00     0.120 A 
HETATM    5  N1  UNL     1     -25.315  65.230  26.054  1.00  0.00    -0.258 NA
HETATM    6  C4  UNL     1     -26.523  65.279  25.427  1.00  0.00     0.091 A 
HETATM    7  C5  UNL     1     -27.635  64.619  25.975  1.00  0.00     0.063 A 
HETATM    8 CL1  UNL     1     -27.500  63.715  27.478  1.00  0.00    -0.082 Cl
HETATM    9  C6  UNL     1     -28.870  64.675  25.321  1.00  0.00     0.026 A 
HETATM   10  C7  UNL     1     -29.004  65.385  24.126  1.00  0.00     0.003 A 
HETATM   11  C8  UNL     1     -27.904  66.046  23.571  1.00  0.00     0.017 A 
HETATM   12  C9  UNL     1     -26.656  65.999  24.215  1.00  0.00     0.031 A 
ENDROOT
TORSDOF 0
ENDMDL
MODEL 2
REMARK VINA RESULT:      -7.2      1.355      3.304
REMARK  0 active torsions:
REMARK  status: ('A' for Active; 'I' for Inactive)
ROOT
HETATM    1  O1  UNL     1     -28.228  66.558  22.530  1.00  0.00    -0.191 OA
HETATM    2  C1  UNL     1     -27.998  65.876  23.721  1.00  0.00     0.121 A 
HETATM    3  C2  UNL     1     -29.050  65.184  24.326  1.00  0.00     0.060 A 
HETATM    4  C3  UNL     1     -28.828  64.497  25.520  1.00  0.00     0.120 A 
HETATM    5  N1  UNL     1     -27.595  64.503  26.092  1.00  0.00    -0.258 NA
HETATM    6  C4  UNL     1     -26.544  65.165  25.533  1.00  0.00     0.091 A 
HETATM    7  C5  UNL     1     -25.284  65.148  26.152  1.00  0.00     0.063 A 
HETATM    8 CL1  UNL     1     -25.028  64.277  27.658  1.00  0.00    -0.082 Cl
HETATM    9  C6  UNL     1     -24.212  65.833  25.569  1.00  0.00     0.026 A 
HETATM   10  C7  UNL     1     -24.389  66.533  24.373  1.00  0.00     0.003 A 
HETATM   11  C8  UNL     1     -25.639  66.556  23.749  1.00  0.00     0.017 A 
HETATM   12  C9  UNL     1     -26.726  65.875  24.321  1.00  0.00     0.031 A 
ENDROOT
TORSDOF 0
ENDMDL
MODEL 3
REMARK VINA RESULT:      -7.1      1.510      2.021
REMARK  0 active torsions:
REMARK  status: ('A' for Active; 'I' for Inactive)
ROOT
HETATM    1  O1  UNL     1     -28.334  66.583  22.769  1.00  0.00    -0.191 OA
HETATM    2  C1  UNL     1     -27.210  66.392  23.567  1.00  0.00     0.121 A 
HETATM    3  C2  UNL     1     -26.006  67.006  23.212  1.00  0.00     0.060 A 
HETATM    4  C3  UNL     1     -24.876  66.819  24.007  1.00  0.00     0.120 A 
HETATM    5  N1  UNL     1     -24.944  66.044  25.121  1.00  0.00    -0.258 NA
HETATM    6  C4  UNL     1     -26.099  65.430  25.501  1.00  0.00     0.091 A 
HETATM    7  C5  UNL     1     -26.133  64.637  26.660  1.00  0.00     0.063 A 
HETATM    8 CL1  UNL     1     -24.694  64.416  27.646  1.00  0.00    -0.082 Cl
HETATM    9  C6  UNL     1     -27.324  64.010  27.040  1.00  0.00     0.026 A 
HETATM   10  C7  UNL     1     -28.481  64.170  26.274  1.00  0.00     0.003 A 
HETATM   11  C8  UNL     1     -28.459  64.957  25.119  1.00  0.00     0.017 A 
HETATM   12  C9  UNL     1     -27.270  65.593  24.722  1.00  0.00     0.031 A 
ENDROOT
TORSDOF 0
ENDMDL
MODEL 4
REMARK VINA RESULT:      -7.0      1.244      3.034
REMARK  0 active torsions:
REMARK  status: ('A' for Active; 'I' for Inactive)
ROOT
HETATM    1  O1  UNL     1     -26.378  67.428  22.563  1.00  0.00    -0.191 OA
HETATM    2  C1  UNL     1     -27.036  66.610  23.477  1.00  0.00     0.121 A 
HETATM    3  C2  UNL     1     -28.410  66.397  23.339  1.00  0.00     0.060 A 
HETATM    4  C3  UNL     1     -29.077  65.578  24.251  1.00  0.00     0.120 A 
HETATM    5  N1  UNL     1     -28.393  64.990  25.268  1.00  0.00    -0.258 NA
HETATM    6  C4  UNL     1     -27.054  65.171  25.435  1.00  0.00     0.091 A 
HETATM    7  C5  UNL     1     -26.380  64.547  26.497  1.00  0.00     0.063 A 
HETATM    8 CL1  UNL     1     -27.242  63.519  27.635  1.00  0.00    -0.082 Cl
HETATM    9  C6  UNL     1     -25.005  64.741  26.660  1.00  0.00     0.026 A 
HETATM   10  C7  UNL     1     -24.297  65.553  25.770  1.00  0.00     0.003 A 
HETATM   11  C8  UNL     1     -24.957  66.180  24.710  1.00  0.00     0.017 A 
HETATM   12  C9  UNL     1     -26.338  65.996  24.532  1.00  0.00     0.031 A 
ENDROOT
TORSDOF 0
ENDMDL
MODEL 5
REMARK VINA RESULT:      -6.9      2.152      2.821
REMARK  0 active torsions:
REMARK  status: ('A' for Active; 'I' for Inactive)
ROOT
HETATM    1  O1  UNL     1     -23.486  65.664  25.995  1.00  0.00    -0.191 OA
HETATM    2  C1  UNL     1     -24.618  65.940  25.235  1.00  0.00     0.121 A 
HETATM    3  C2  UNL     1     -24.509  66.788  24.129  1.00  0.00     0.060 A 
HETATM    4  C3  UNL     1     -25.639  67.069  23.361  1.00  0.00     0.120 A 
HETATM    5  N1  UNL     1     -26.839  66.522  23.686  1.00  0.00    -0.258 NA
HETATM    6  C4  UNL     1     -26.986  65.690  24.754  1.00  0.00     0.091 A 
HETATM    7  C5  UNL     1     -28.243  65.143  25.060  1.00  0.00     0.063 A 
HETATM    8 CL1  UNL     1     -29.654  65.513  24.077  1.00  0.00    -0.082 Cl
HETATM    9  C6  UNL     1     -28.382  64.291  26.161  1.00  0.00     0.026 A 
HETATM   10  C7  UNL     1     -27.278  63.982  26.958  1.00  0.00     0.003 A 
HETATM   11  C8  UNL     1     -26.023  64.521  26.663  1.00  0.00     0.017 A 
HETATM   12  C9  UNL     1     -25.865  65.379  25.561  1.00  0.00     0.031 A 
ENDROOT
TORSDOF 0
ENDMDL
MODEL 6
REMARK VINA RESULT:      -6.8      2.035      3.526
REMARK  0 active torsions:
REMARK  status: ('A' for Active; 'I' for Inactive)
ROOT
HETATM    1  O1  UNL     1     -29.581  65.505  24.100  1.00  0.00    -0.191 OA
HETATM    2  C1  UNL     1     -28.492  65.208  24.915  1.00  0.00     0.121 A 
HETATM    3  C2  UNL     1     -28.674  64.379  26.024  1.00  0.00     0.060 A 
HETATM    4  C3  UNL     1     -27.588  64.076  26.845  1.00  0.00     0.120 A 
HETATM    5  N1  UNL     1     -26.359  64.586  26.567  1.00  0.00    -0.258 NA
HETATM    6  C4  UNL     1     -26.141  65.396  25.495  1.00  0.00     0.091 A 
HETATM    7  C5  UNL     1     -24.857  65.904  25.239  1.00  0.00     0.063 A 
HETATM    8 CL1  UNL     1     -23.502  65.509  26.288  1.00  0.00    -0.082 Cl
HETATM    9  C6  UNL     1     -24.645  66.737  24.135  1.00  0.00     0.026 A 
HETATM   10  C7  UNL     1     -25.704  67.066  23.286  1.00  0.00     0.003 A 
HETATM   11  C8  UNL     1     -26.986  66.567  23.532  1.00  0.00     0.017 A 
HETATM   12  C9  UNL     1     -27.217  65.729  24.636  1.00  0.00     0.031 A 
ENDROOT
TORSDOF 0
ENDMDL
MODEL 7
REMARK VINA RESULT:      -6.8      2.822      3.452
REMARK  0 active torsions:
REMARK  status: ('A' for Active; 'I' for Inactive)
ROOT
HETATM    1  O1  UNL     1     -27.511  63.067  27.571  1.00  0.00    -0.191 OA
HETATM    2  C1  UNL     1     -26.753  63.988  26.854  1.00  0.00     0.121 A 
HETATM    3  C2  UNL     1     -25.411  64.179  27.191  1.00  0.00     0.060 A 
HETATM    4  C3  UNL     1     -24.644  65.100  26.477  1.00  0.00     0.120 A 
HETATM    5  N1  UNL     1     -25.200  65.808  25.459  1.00  0.00    -0.258 NA
HETATM    6  C4  UNL     1     -26.505  65.650  25.100  1.00  0.00     0.091 A 
HETATM    7  C5  UNL     1     -27.045  66.399  24.042  1.00  0.00     0.063 A 
HETATM    8 CL1  UNL     1     -26.059  67.556  23.157  1.00  0.00    -0.082 Cl
HETATM    9  C6  UNL     1     -28.386  66.229  23.683  1.00  0.00     0.026 A 
HETATM   10  C7  UNL     1     -29.191  65.317  24.371  1.00  0.00     0.003 A 
HETATM   11  C8  UNL     1     -28.663  64.567  25.425  1.00  0.00     0.017 A 
HETATM   12  C9  UNL     1     -27.318  64.726  25.799  1.00  0.00     0.031 A 
ENDROOT
TORSDOF 0
ENDMDL
MODEL 8
REMARK VINA RESULT:      -6.6      2.539      3.773
REMARK  0 active torsions:
REMARK  status: ('A' for Active; 'I' for Inactive)
ROOT
HETATM    1  O1  UNL     1     -23.897  64.362  27.110  1.00  0.00    -0.191 OA
HETATM    2  C1  UNL     1     -25.225  64.493  26.712  1.00  0.00     0.121 A 
HETATM    3  C2  UNL     1     -26.215  63.778  27.391  1.00  0.00     0.060 A 
HETATM    4  C3  UNL     1     -27.548  63.904  26.999  1.00  0.00     0.120 A 
HETATM    5  N1  UNL     1     -27.881  64.717  25.963  1.00  0.00    -0.258 NA
HETATM    6  C4  UNL     1     -26.945  65.431  25.277  1.00  0.00     0.091 A 
HETATM    7  C5  UNL     1     -27.327  66.262  24.211  1.00  0.00     0.063 A 
HETATM    8 CL1  UNL     1     -29.014  66.404  23.735  1.00  0.00    -0.082 Cl
HETATM    9  C6  UNL     1     -26.357  66.989  23.514  1.00  0.00     0.026 A 
HETATM   10  C7  UNL     1     -25.010  66.893  23.872  1.00  0.00     0.003 A 
HETATM   11  C8  UNL     1     -24.619  66.069  24.931  1.00  0.00     0.017 A 
HETATM   12  C9  UNL     1     -25.581  65.332  25.642  1.00  0.00     0.031 A 
ENDROOT
TORSDOF 0
ENDMDL
MODEL 9
REMARK VINA RESULT:      -6.5      3.656      4.479
REMARK  0 active torsions:
REMARK  status: ('A' for Active; 'I' for Inactive)
ROOT
HETATM    1  O1  UNL     1     -26.625  61.388  28.981  1.00  0.00    -0.191 OA
HETATM    2  C1  UNL     1     -25.875  62.238  28.174  1.00  0.00     0.121 A 
HETATM    3  C2  UNL     1     -24.488  62.078  28.115  1.00  0.00     0.060 A 
HETATM    4  C3  UNL     1     -23.729  62.924  27.307  1.00  0.00     0.120 A 
HETATM    5  N1  UNL     1     -24.335  63.901  26.582  1.00  0.00    -0.258 NA
HETATM    6  C4  UNL     1     -25.684  64.088  26.611  1.00  0.00     0.091 A 
HETATM    7  C5  UNL     1     -26.275  65.107  25.846  1.00  0.00     0.063 A 
HETATM    8 CL1  UNL     1     -25.298  66.163  24.836  1.00  0.00    -0.082 Cl
HETATM    9  C6  UNL     1     -27.662  65.290  25.886  1.00  0.00     0.026 A 
HETATM   10  C7  UNL     1     -28.461  64.465  26.680  1.00  0.00     0.003 A 
HETATM   11  C8  UNL     1     -27.882  63.448  27.445  1.00  0.00     0.017 A 
HETATM   12  C9  UNL     1     -26.492  63.250  27.418  1.00  0.00     0.031 A 
ENDROOT
TORSDOF 0
ENDMDL
