MODEL 1
REMARK VINA RESULT:      -6.8      0.000      0.000
REMARK  1 active torsions:
REMARK  status: ('A' for Active; 'I' for Inactive)
REMARK    1  A    between atoms: C6_7  and  C7_8 
ROOT
HETATM    1  O1  UNL     1     -25.133  67.295  22.915  1.00  0.00    -0.191 OA
HETATM    2  C1  UNL     1     -24.836  66.593  24.078  1.00  0.00     0.121 A 
HETATM    3  C2  UNL     1     -23.502  66.508  24.494  1.00  0.00     0.041 A 
HETATM    4  C3  UNL     1     -23.168  65.812  25.657  1.00  0.00     0.003 A 
HETATM    5  C4  UNL     1     -24.169  65.195  26.411  1.00  0.00     0.001 A 
HETATM    6  C5  UNL     1     -25.503  65.273  26.005  1.00  0.00     0.019 A 
HETATM    7  C6  UNL     1     -25.854  65.973  24.834  1.00  0.00     0.055 A 
ENDROOT
BRANCH   7   8
HETATM    8  C7  UNL     1     -27.274  66.045  24.420  1.00  0.00     0.205 A 
HETATM    9  N1  UNL     1     -27.877  67.160  23.961  1.00  0.00    -0.122 NA
HETATM   10  N2  UNL     1     -29.131  66.825  23.699  1.00  0.00    -0.136 NA
HETATM   11  C8  UNL     1     -29.251  65.520  24.005  1.00  0.00     0.285 A 
HETATM   12  O2  UNL     1     -28.115  65.037  24.448  1.00  0.00    -0.281 OA
ENDBRANCH   7   8
TORSDOF 1
ENDMDL
MODEL 2
REMARK VINA RESULT:      -6.7      2.547      3.684
REMARK  1 active torsions:
REMARK  status: ('A' for Active; 'I' for Inactive)
REMARK    1  A    between atoms: C6_7  and  C7_8 
ROOT
HETATM    1  O1  UNL     1     -29.267  65.129  24.113  1.00  0.00    -0.191 OA
HETATM    2  C1  UNL     1     -27.963  65.611  24.096  1.00  0.00     0.121 A 
HETATM    3  C2  UNL     1     -27.512  66.301  22.965  1.00  0.00     0.041 A 
HETATM    4  C3  UNL     1     -26.208  66.798  22.914  1.00  0.00     0.003 A 
HETATM    5  C4  UNL     1     -25.347  66.608  23.997  1.00  0.00     0.001 A 
HETATM    6  C5  UNL     1     -25.787  65.921  25.131  1.00  0.00     0.019 A 
HETATM    7  C6  UNL     1     -27.100  65.414  25.196  1.00  0.00     0.055 A 
ENDROOT
BRANCH   7   8
HETATM    8  C7  UNL     1     -27.548  64.689  26.407  1.00  0.00     0.205 A 
HETATM    9  N1  UNL     1     -28.551  65.096  27.209  1.00  0.00    -0.122 NA
HETATM   10  N2  UNL     1     -28.648  64.193  28.173  1.00  0.00    -0.136 NA
HETATM   11  C8  UNL     1     -27.703  63.267  27.926  1.00  0.00     0.285 A 
HETATM   12  O2  UNL     1     -27.026  63.567  26.845  1.00  0.00    -0.281 OA
ENDBRANCH   7   8
TORSDOF 1
ENDMDL
MODEL 3
REMARK VINA RESULT:      -6.5      2.764      4.419
REMARK  1 active torsions:
REMARK  status: ('A' for Active; 'I' for Inactive)
REMARK    1  A    between atoms: C6_7  and  C7_8 
ROOT
HETATM    1  O1  UNL     1     -25.532  67.090  22.535  1.00  0.00    -0.191 OA
HETATM    2  C1  UNL     1     -26.218  66.467  23.571  1.00  0.00     0.121 A 
HETATM    3  C2  UNL     1     -27.617  66.431  23.530  1.00  0.00     0.041 A 
HETATM    4  C3  UNL     1     -28.337  65.813  24.554  1.00  0.00     0.003 A 
HETATM    5  C4  UNL     1     -27.662  65.227  25.626  1.00  0.00     0.001 A 
HETATM    6  C5  UNL     1     -26.266  65.257  25.677  1.00  0.00     0.019 A 
HETATM    7  C6  UNL     1     -25.527  65.877  24.651  1.00  0.00     0.055 A 
ENDROOT
BRANCH   7   8
HETATM    8  C7  UNL     1     -24.048  65.899  24.723  1.00  0.00     0.205 A 
HETATM    9  N1  UNL     1     -23.265  64.805  24.629  1.00  0.00    -0.122 NA
HETATM   10  N2  UNL     1     -22.016  65.230  24.738  1.00  0.00    -0.136 NA
HETATM   11  C8  UNL     1     -22.077  66.565  24.895  1.00  0.00     0.285 A 
HETATM   12  O2  UNL     1     -23.321  66.980  24.887  1.00  0.00    -0.281 OA
ENDBRANCH   7   8
TORSDOF 1
ENDMDL
MODEL 4
REMARK VINA RESULT:      -6.4      2.158      3.395
REMARK  1 active torsions:
REMARK  status: ('A' for Active; 'I' for Inactive)
REMARK    1  A    between atoms: C6_7  and  C7_8 
ROOT
HETATM    1  O1  UNL     1     -28.999  65.519  25.215  1.00  0.00    -0.191 OA
HETATM    2  C1  UNL     1     -27.886  65.046  25.902  1.00  0.00     0.121 A 
HETATM    3  C2  UNL     1     -28.080  64.312  27.078  1.00  0.00     0.041 A 
HETATM    4  C3  UNL     1     -26.985  63.823  27.792  1.00  0.00     0.003 A 
HETATM    5  C4  UNL     1     -25.688  64.065  27.334  1.00  0.00     0.001 A 
HETATM    6  C5  UNL     1     -25.484  64.797  26.161  1.00  0.00     0.019 A 
HETATM    7  C6  UNL     1     -26.580  65.296  25.431  1.00  0.00     0.055 A 
ENDROOT
BRANCH   7   8
HETATM    8  C7  UNL     1     -26.343  66.070  24.190  1.00  0.00     0.205 A 
HETATM    9  N1  UNL     1     -25.284  66.879  23.988  1.00  0.00    -0.122 NA
HETATM   10  N2  UNL     1     -25.428  67.385  22.773  1.00  0.00    -0.136 NA
HETATM   11  C8  UNL     1     -26.566  66.869  22.275  1.00  0.00     0.285 A 
HETATM   12  O2  UNL     1     -27.131  66.062  23.140  1.00  0.00    -0.281 OA
ENDBRANCH   7   8
TORSDOF 1
ENDMDL
MODEL 5
REMARK VINA RESULT:      -6.4      2.107      3.266
REMARK  1 active torsions:
REMARK  status: ('A' for Active; 'I' for Inactive)
REMARK    1  A    between atoms: C6_7  and  C7_8 
ROOT
HETATM    1  O1  UNL     1     -24.373  64.989  25.728  1.00  0.00    -0.191 OA
HETATM    2  C1  UNL     1     -25.662  64.761  26.199  1.00  0.00     0.121 A 
HETATM    3  C2  UNL     1     -25.830  64.010  27.369  1.00  0.00     0.041 A 
HETATM    4  C3  UNL     1     -27.109  63.762  27.870  1.00  0.00     0.003 A 
HETATM    5  C4  UNL     1     -28.229  64.264  27.203  1.00  0.00     0.001 A 
HETATM    6  C5  UNL     1     -28.072  65.015  26.035  1.00  0.00     0.019 A 
HETATM    7  C6  UNL     1     -26.787  65.272  25.518  1.00  0.00     0.055 A 
ENDROOT
BRANCH   7   8
HETATM    8  C7  UNL     1     -26.641  66.069  24.279  1.00  0.00     0.205 A 
HETATM    9  N1  UNL     1     -27.463  65.979  23.215  1.00  0.00    -0.122 NA
HETATM   10  N2  UNL     1     -27.009  66.841  22.318  1.00  0.00    -0.136 NA
HETATM   11  C8  UNL     1     -25.928  67.427  22.863  1.00  0.00     0.285 A 
HETATM   12  O2  UNL     1     -25.698  66.958  24.065  1.00  0.00    -0.281 OA
ENDBRANCH   7   8
TORSDOF 1
ENDMDL
MODEL 6
REMARK VINA RESULT:      -6.3      3.919      5.014
REMARK  1 active torsions:
REMARK  status: ('A' for Active; 'I' for Inactive)
REMARK    1  A    between atoms: C6_7  and  C7_8 
ROOT
HETATM    1  O1  UNL     1     -28.722  64.228  26.641  1.00  0.00    -0.191 OA
HETATM    2  C1  UNL     1     -27.464  64.684  26.264  1.00  0.00     0.121 A 
HETATM    3  C2  UNL     1     -27.351  65.498  25.131  1.00  0.00     0.041 A 
HETATM    4  C3  UNL     1     -26.103  65.974  24.725  1.00  0.00     0.003 A 
HETATM    5  C4  UNL     1     -24.959  65.637  25.451  1.00  0.00     0.001 A 
HETATM    6  C5  UNL     1     -25.060  64.825  26.584  1.00  0.00     0.019 A 
HETATM    7  C6  UNL     1     -26.313  64.338  27.005  1.00  0.00     0.055 A 
ENDROOT
BRANCH   7   8
HETATM    8  C7  UNL     1     -26.400  63.479  28.207  1.00  0.00     0.205 A 
HETATM    9  N1  UNL     1     -26.196  62.146  28.207  1.00  0.00    -0.122 NA
HETATM   10  N2  UNL     1     -26.361  61.743  29.457  1.00  0.00    -0.136 NA
HETATM   11  C8  UNL     1     -26.659  62.839  30.177  1.00  0.00     0.285 A 
HETATM   12  O2  UNL     1     -26.684  63.906  29.416  1.00  0.00    -0.281 OA
ENDBRANCH   7   8
TORSDOF 1
ENDMDL
MODEL 7
REMARK VINA RESULT:      -6.3      1.264      2.070
REMARK  1 active torsions:
REMARK  status: ('A' for Active; 'I' for Inactive)
REMARK    1  A    between atoms: C6_7  and  C7_8 
ROOT
HETATM    1  O1  UNL     1     -26.351  64.442  26.597  1.00  0.00    -0.191 OA
HETATM    2  C1  UNL     1     -25.300  65.153  26.027  1.00  0.00     0.121 A 
HETATM    3  C2  UNL     1     -24.033  65.076  26.617  1.00  0.00     0.041 A 
HETATM    4  C3  UNL     1     -22.957  65.777  26.071  1.00  0.00     0.003 A 
HETATM    5  C4  UNL     1     -23.141  66.560  24.930  1.00  0.00     0.001 A 
HETATM    6  C5  UNL     1     -24.402  66.645  24.333  1.00  0.00     0.019 A 
HETATM    7  C6  UNL     1     -25.497  65.943  24.874  1.00  0.00     0.055 A 
ENDROOT
BRANCH   7   8
HETATM    8  C7  UNL     1     -26.825  66.045  24.227  1.00  0.00     0.205 A 
HETATM    9  N1  UNL     1     -27.060  66.697  23.071  1.00  0.00    -0.122 NA
HETATM   10  N2  UNL     1     -28.354  66.564  22.824  1.00  0.00    -0.136 NA
HETATM   11  C8  UNL     1     -28.864  65.837  23.834  1.00  0.00     0.285 A 
HETATM   12  O2  UNL     1     -27.931  65.517  24.698  1.00  0.00    -0.281 OA
ENDBRANCH   7   8
TORSDOF 1
ENDMDL
MODEL 8
REMARK VINA RESULT:      -6.2      3.503      4.551
REMARK  1 active torsions:
REMARK  status: ('A' for Active; 'I' for Inactive)
REMARK    1  A    between atoms: C6_7  and  C7_8 
ROOT
HETATM    1  O1  UNL     1     -28.336  64.524  26.097  1.00  0.00    -0.191 OA
HETATM    2  C1  UNL     1     -27.052  64.971  25.804  1.00  0.00     0.121 A 
HETATM    3  C2  UNL     1     -26.872  65.855  24.734  1.00  0.00     0.041 A 
HETATM    4  C3  UNL     1     -25.597  66.324  24.412  1.00  0.00     0.003 A 
HETATM    5  C4  UNL     1     -24.493  65.910  25.160  1.00  0.00     0.001 A 
HETATM    6  C5  UNL     1     -24.661  65.027  26.229  1.00  0.00     0.019 A 
HETATM    7  C6  UNL     1     -25.941  64.546  26.565  1.00  0.00     0.055 A 
ENDROOT
BRANCH   7   8
HETATM    8  C7  UNL     1     -26.099  63.611  27.702  1.00  0.00     0.205 A 
HETATM    9  N1  UNL     1     -26.667  63.935  28.881  1.00  0.00    -0.122 NA
HETATM   10  N2  UNL     1     -26.623  62.844  29.629  1.00  0.00    -0.136 NA
HETATM   11  C8  UNL     1     -26.031  61.892  28.885  1.00  0.00     0.285 A 
HETATM   12  O2  UNL     1     -25.708  62.357  27.702  1.00  0.00    -0.281 OA
ENDBRANCH   7   8
TORSDOF 1
ENDMDL
MODEL 9
REMARK VINA RESULT:      -6.1      3.099      3.753
REMARK  1 active torsions:
REMARK  status: ('A' for Active; 'I' for Inactive)
REMARK    1  A    between atoms: C6_7  and  C7_8 
ROOT
HETATM    1  O1  UNL     1     -24.591  65.293  26.522  1.00  0.00    -0.191 OA
HETATM    2  C1  UNL     1     -25.487  65.624  25.511  1.00  0.00     0.121 A 
HETATM    3  C2  UNL     1     -25.023  66.348  24.407  1.00  0.00     0.041 A 
HETATM    4  C3  UNL     1     -25.896  66.697  23.374  1.00  0.00     0.003 A 
HETATM    5  C4  UNL     1     -27.239  66.323  23.441  1.00  0.00     0.001 A 
HETATM    6  C5  UNL     1     -27.713  65.600  24.539  1.00  0.00     0.019 A 
HETATM    7  C6  UNL     1     -26.844  65.242  25.588  1.00  0.00     0.055 A 
ENDROOT
BRANCH   7   8
HETATM    8  C7  UNL     1     -27.364  64.476  26.743  1.00  0.00     0.205 A 
HETATM    9  N1  UNL     1     -26.863  63.298  27.163  1.00  0.00    -0.122 NA
HETATM   10  N2  UNL     1     -27.589  62.935  28.210  1.00  0.00    -0.136 NA
HETATM   11  C8  UNL     1     -28.506  63.901  28.393  1.00  0.00     0.285 A 
HETATM   12  O2  UNL     1     -28.373  64.848  27.497  1.00  0.00    -0.281 OA
ENDBRANCH   7   8
TORSDOF 1
ENDMDL
