MODEL 1
REMARK VINA RESULT:      -6.0      0.000      0.000
REMARK  2 active torsions:
REMARK  status: ('A' for Active; 'I' for Inactive)
REMARK    1  A    between atoms: N1_1  and  C1_2 
REMARK    2  A    between atoms: C3_6  and  N4_7 
ROOT
HETATM    1  C1  UNL     1     -26.387  66.478  23.076  1.00  0.00     0.737 A 
HETATM    2  N2  UNL     1     -25.113  66.935  23.169  1.00  0.00    -0.055 NA
HETATM    3  C2  UNL     1     -24.382  66.684  24.284  1.00  0.00     0.272 A 
HETATM    4  N3  UNL     1     -24.926  65.976  25.306  1.00  0.00    -0.055 NA
HETATM    5  C3  UNL     1     -26.202  65.514  25.223  1.00  0.00     0.741 A 
HETATM    6  N5  UNL     1     -26.928  65.771  24.100  1.00  0.00     0.130 NA
ENDROOT
BRANCH   5   7
HETATM    7  N4  UNL     1     -26.780  64.762  26.310  1.00  0.00    -0.210 N 
HETATM    8  C4  UNL     1     -25.921  63.914  27.149  1.00  0.00     0.167 C 
HETATM    9  C5  UNL     1     -26.575  63.668  28.512  1.00  0.00     0.188 C 
HETATM   10  O1  UNL     1     -27.904  63.212  28.358  1.00  0.00    -0.388 OA
HETATM   11  C6  UNL     1     -28.689  64.237  27.783  1.00  0.00     0.188 C 
HETATM   12  C7  UNL     1     -28.232  64.536  26.352  1.00  0.00     0.167 C 
ENDBRANCH   5   7
BRANCH   1  13
HETATM   13  N1  UNL     1     -27.156  66.741  21.905  1.00  0.00    -0.230 N 
HETATM   14  H1  UNL     1     -27.268  67.718  21.554  1.00  0.00     0.174 HD
HETATM   15  H2  UNL     1     -27.615  65.959  21.387  1.00  0.00     0.174 HD
ENDBRANCH   1  13
TORSDOF 2
ENDMDL
MODEL 2
REMARK VINA RESULT:      -5.8      1.813      2.714
REMARK  2 active torsions:
REMARK  status: ('A' for Active; 'I' for Inactive)
REMARK    1  A    between atoms: N1_1  and  C1_2 
REMARK    2  A    between atoms: C3_6  and  N4_7 
ROOT
HETATM    1  C1  UNL     1     -27.284  66.351  22.978  1.00  0.00     0.737 A 
HETATM    2  N2  UNL     1     -28.613  66.378  23.253  1.00  0.00    -0.055 NA
HETATM    3  C2  UNL     1     -29.065  65.949  24.458  1.00  0.00     0.272 A 
HETATM    4  N3  UNL     1     -28.188  65.492  25.387  1.00  0.00    -0.055 NA
HETATM    5  C3  UNL     1     -26.855  65.460  25.121  1.00  0.00     0.741 A 
HETATM    6  N5  UNL     1     -26.411  65.893  23.910  1.00  0.00     0.130 NA
ENDROOT
BRANCH   5   7
HETATM    7  N4  UNL     1     -25.923  64.974  26.110  1.00  0.00    -0.210 N 
HETATM    8  C4  UNL     1     -24.479  65.037  25.846  1.00  0.00     0.167 C 
HETATM    9  C5  UNL     1     -23.691  65.012  27.159  1.00  0.00     0.188 C 
HETATM   10  O1  UNL     1     -24.107  63.937  27.977  1.00  0.00    -0.388 OA
HETATM   11  C6  UNL     1     -25.444  64.148  28.385  1.00  0.00     0.188 C 
HETATM   12  C7  UNL     1     -26.396  64.091  27.187  1.00  0.00     0.167 C 
ENDBRANCH   5   7
BRANCH   1  13
HETATM   13  N1  UNL     1     -26.808  66.802  21.712  1.00  0.00    -0.230 N 
HETATM   14  H1  UNL     1     -27.473  66.963  20.924  1.00  0.00     0.174 HD
HETATM   15  H2  UNL     1     -25.789  66.974  21.562  1.00  0.00     0.174 HD
ENDBRANCH   1  13
TORSDOF 2
ENDMDL
MODEL 3
REMARK VINA RESULT:      -5.7      1.259      2.401
REMARK  2 active torsions:
REMARK  status: ('A' for Active; 'I' for Inactive)
REMARK    1  A    between atoms: N1_1  and  C1_2 
REMARK    2  A    between atoms: C3_6  and  N4_7 
ROOT
HETATM    1  C1  UNL     1     -26.299  66.745  23.765  1.00  0.00     0.737 A 
HETATM    2  N2  UNL     1     -27.531  66.818  23.201  1.00  0.00    -0.055 NA
HETATM    3  C2  UNL     1     -28.554  66.085  23.709  1.00  0.00     0.272 A 
HETATM    4  N3  UNL     1     -28.344  65.280  24.780  1.00  0.00    -0.055 NA
HETATM    5  C3  UNL     1     -27.113  65.199  25.352  1.00  0.00     0.741 A 
HETATM    6  N5  UNL     1     -26.093  65.938  24.836  1.00  0.00     0.130 NA
ENDROOT
BRANCH   5   7
HETATM    7  N4  UNL     1     -26.890  64.343  26.492  1.00  0.00    -0.210 N 
HETATM    8  C4  UNL     1     -27.972  64.122  27.463  1.00  0.00     0.167 C 
HETATM    9  C5  UNL     1     -27.747  62.817  28.232  1.00  0.00     0.188 C 
HETATM   10  O1  UNL     1     -26.440  62.767  28.767  1.00  0.00    -0.388 OA
HETATM   11  C6  UNL     1     -25.502  62.707  27.711  1.00  0.00     0.188 C 
HETATM   12  C7  UNL     1     -25.517  64.002  26.893  1.00  0.00     0.167 C 
ENDBRANCH   5   7
BRANCH   1  13
HETATM   13  N1  UNL     1     -25.224  67.514  23.231  1.00  0.00    -0.230 N 
HETATM   14  H1  UNL     1     -24.924  68.398  23.697  1.00  0.00     0.174 HD
HETATM   15  H2  UNL     1     -24.727  67.199  22.368  1.00  0.00     0.174 HD
ENDBRANCH   1  13
TORSDOF 2
ENDMDL
MODEL 4
REMARK VINA RESULT:      -5.6      2.584      5.058
REMARK  2 active torsions:
REMARK  status: ('A' for Active; 'I' for Inactive)
REMARK    1  A    between atoms: N1_1  and  C1_2 
REMARK    2  A    between atoms: C3_6  and  N4_7 
ROOT
HETATM    1  C1  UNL     1     -27.797  63.722  28.139  1.00  0.00     0.737 A 
HETATM    2  N2  UNL     1     -26.573  63.568  28.704  1.00  0.00    -0.055 NA
HETATM    3  C2  UNL     1     -25.470  64.040  28.071  1.00  0.00     0.272 A 
HETATM    4  N3  UNL     1     -25.591  64.664  26.873  1.00  0.00    -0.055 NA
HETATM    5  C3  UNL     1     -26.813  64.823  26.297  1.00  0.00     0.741 A 
HETATM    6  N5  UNL     1     -27.914  64.347  26.940  1.00  0.00     0.130 NA
ENDROOT
BRANCH   5   7
HETATM    7  N4  UNL     1     -26.940  65.488  25.023  1.00  0.00    -0.210 N 
HETATM    8  C4  UNL     1     -28.127  65.249  24.190  1.00  0.00     0.167 C 
HETATM    9  C5  UNL     1     -28.340  66.407  23.211  1.00  0.00     0.188 C 
HETATM   10  O1  UNL     1     -27.152  66.689  22.499  1.00  0.00    -0.388 OA
HETATM   11  C6  UNL     1     -26.171  67.174  23.394  1.00  0.00     0.188 C 
HETATM   12  C7  UNL     1     -25.756  66.087  24.390  1.00  0.00     0.167 C 
ENDBRANCH   5   7
BRANCH   1  13
HETATM   13  N1  UNL     1     -28.957  63.227  28.803  1.00  0.00    -0.230 N 
HETATM   14  H1  UNL     1     -29.832  63.035  28.268  1.00  0.00     0.174 HD
HETATM   15  H2  UNL     1     -28.942  63.052  29.833  1.00  0.00     0.174 HD
ENDBRANCH   1  13
TORSDOF 2
ENDMDL
MODEL 5
REMARK VINA RESULT:      -5.6      2.620      5.179
REMARK  2 active torsions:
REMARK  status: ('A' for Active; 'I' for Inactive)
REMARK    1  A    between atoms: N1_1  and  C1_2 
REMARK    2  A    between atoms: C3_6  and  N4_7 
ROOT
HETATM    1  C1  UNL     1     -26.290  62.723  28.030  1.00  0.00     0.737 A 
HETATM    2  N2  UNL     1     -27.325  62.753  28.907  1.00  0.00    -0.055 NA
HETATM    3  C2  UNL     1     -28.365  63.599  28.699  1.00  0.00     0.272 A 
HETATM    4  N3  UNL     1     -28.370  64.414  27.615  1.00  0.00    -0.055 NA
HETATM    5  C3  UNL     1     -27.337  64.392  26.730  1.00  0.00     0.741 A 
HETATM    6  N5  UNL     1     -26.298  63.540  26.946  1.00  0.00     0.130 NA
ENDROOT
BRANCH   5   7
HETATM    7  N4  UNL     1     -27.344  65.259  25.577  1.00  0.00    -0.210 N 
HETATM    8  C4  UNL     1     -26.082  65.835  25.088  1.00  0.00     0.167 C 
HETATM    9  C5  UNL     1     -26.207  66.232  23.615  1.00  0.00     0.188 C 
HETATM   10  O1  UNL     1     -27.354  67.029  23.403  1.00  0.00    -0.388 OA
HETATM   11  C6  UNL     1     -28.514  66.259  23.649  1.00  0.00     0.188 C 
HETATM   12  C7  UNL     1     -28.605  65.866  25.126  1.00  0.00     0.167 C 
ENDBRANCH   5   7
BRANCH   1  13
HETATM   13  N1  UNL     1     -25.196  61.835  28.247  1.00  0.00    -0.230 N 
HETATM   14  H1  UNL     1     -24.840  61.661  29.212  1.00  0.00     0.174 HD
HETATM   15  H2  UNL     1     -24.742  61.349  27.441  1.00  0.00     0.174 HD
ENDBRANCH   1  13
TORSDOF 2
ENDMDL
MODEL 6
REMARK VINA RESULT:      -5.5      2.566      4.891
REMARK  2 active torsions:
REMARK  status: ('A' for Active; 'I' for Inactive)
REMARK    1  A    between atoms: N1_1  and  C1_2 
REMARK    2  A    between atoms: C3_6  and  N4_7 
ROOT
HETATM    1  C1  UNL     1     -27.023  62.935  27.864  1.00  0.00     0.737 A 
HETATM    2  N2  UNL     1     -25.763  62.490  28.104  1.00  0.00    -0.055 NA
HETATM    3  C2  UNL     1     -24.721  62.989  27.394  1.00  0.00     0.272 A 
HETATM    4  N3  UNL     1     -24.939  63.932  26.443  1.00  0.00    -0.055 NA
HETATM    5  C3  UNL     1     -26.198  64.384  26.194  1.00  0.00     0.741 A 
HETATM    6  N5  UNL     1     -27.237  63.877  26.912  1.00  0.00     0.130 NA
ENDROOT
BRANCH   5   7
HETATM    7  N4  UNL     1     -26.428  65.387  25.183  1.00  0.00    -0.210 N 
HETATM    8  C4  UNL     1     -25.325  66.258  24.753  1.00  0.00     0.167 C 
HETATM    9  C5  UNL     1     -25.602  66.827  23.359  1.00  0.00     0.188 C 
HETATM   10  O1  UNL     1     -26.887  67.411  23.298  1.00  0.00    -0.388 OA
HETATM   11  C6  UNL     1     -27.868  66.405  23.457  1.00  0.00     0.188 C 
HETATM   12  C7  UNL     1     -27.803  65.797  24.861  1.00  0.00     0.167 C 
ENDBRANCH   5   7
BRANCH   1  13
HETATM   13  N1  UNL     1     -28.119  62.410  28.611  1.00  0.00    -0.230 N 
HETATM   14  H1  UNL     1     -27.967  61.652  29.311  1.00  0.00     0.174 HD
HETATM   15  H2  UNL     1     -29.084  62.781  28.462  1.00  0.00     0.174 HD
ENDBRANCH   1  13
TORSDOF 2
ENDMDL
MODEL 7
REMARK VINA RESULT:      -5.5      2.451      3.408
REMARK  2 active torsions:
REMARK  status: ('A' for Active; 'I' for Inactive)
REMARK    1  A    between atoms: N1_1  and  C1_2 
REMARK    2  A    between atoms: C3_6  and  N4_7 
ROOT
HETATM    1  C1  UNL     1     -27.963  65.806  23.690  1.00  0.00     0.737 A 
HETATM    2  N2  UNL     1     -27.680  66.565  22.601  1.00  0.00    -0.055 NA
HETATM    3  C2  UNL     1     -26.414  67.005  22.392  1.00  0.00     0.272 A 
HETATM    4  N3  UNL     1     -25.432  66.686  23.272  1.00  0.00    -0.055 NA
HETATM    5  C3  UNL     1     -25.705  65.927  24.367  1.00  0.00     0.741 A 
HETATM    6  N5  UNL     1     -26.978  65.490  24.568  1.00  0.00     0.130 NA
ENDROOT
BRANCH   5   7
HETATM    7  N4  UNL     1     -24.660  65.588  25.302  1.00  0.00    -0.210 N 
HETATM    8  C4  UNL     1     -23.279  66.023  25.043  1.00  0.00     0.167 C 
HETATM    9  C5  UNL     1     -22.476  66.064  26.346  1.00  0.00     0.188 C 
HETATM   10  O1  UNL     1     -22.601  64.847  27.054  1.00  0.00    -0.388 OA
HETATM   11  C6  UNL     1     -23.939  64.688  27.483  1.00  0.00     0.188 C 
HETATM   12  C7  UNL     1     -24.879  64.518  26.286  1.00  0.00     0.167 C 
ENDBRANCH   5   7
BRANCH   1  13
HETATM   13  N1  UNL     1     -29.294  65.343  23.911  1.00  0.00    -0.230 N 
HETATM   14  H1  UNL     1     -29.511  64.726  24.724  1.00  0.00     0.174 HD
HETATM   15  H2  UNL     1     -30.063  65.617  23.260  1.00  0.00     0.174 HD
ENDBRANCH   1  13
TORSDOF 2
ENDMDL
MODEL 8
REMARK VINA RESULT:      -5.5      1.801      2.481
REMARK  2 active torsions:
REMARK  status: ('A' for Active; 'I' for Inactive)
REMARK    1  A    between atoms: N1_1  and  C1_2 
REMARK    2  A    between atoms: C3_6  and  N4_7 
ROOT
HETATM    1  C1  UNL     1     -27.484  66.766  23.998  1.00  0.00     0.737 A 
HETATM    2  N2  UNL     1     -26.582  67.485  23.282  1.00  0.00    -0.055 NA
HETATM    3  C2  UNL     1     -25.254  67.290  23.474  1.00  0.00     0.272 A 
HETATM    4  N3  UNL     1     -24.827  66.376  24.382  1.00  0.00    -0.055 NA
HETATM    5  C3  UNL     1     -25.723  65.652  25.105  1.00  0.00     0.741 A 
HETATM    6  N5  UNL     1     -27.053  65.854  24.905  1.00  0.00     0.130 NA
ENDROOT
BRANCH   5   7
HETATM    7  N4  UNL     1     -25.268  64.680  26.070  1.00  0.00    -0.210 N 
HETATM    8  C4  UNL     1     -26.178  64.221  27.130  1.00  0.00     0.167 C 
HETATM    9  C5  UNL     1     -25.734  62.857  27.666  1.00  0.00     0.188 C 
HETATM   10  O1  UNL     1     -24.365  62.874  28.015  1.00  0.00    -0.388 OA
HETATM   11  C6  UNL     1     -23.585  63.052  26.849  1.00  0.00     0.188 C 
HETATM   12  C7  UNL     1     -23.828  64.435  26.237  1.00  0.00     0.167 C 
ENDBRANCH   5   7
BRANCH   1  13
HETATM   13  N1  UNL     1     -28.881  66.970  23.796  1.00  0.00    -0.230 N 
HETATM   14  H1  UNL     1     -29.303  66.843  22.851  1.00  0.00     0.174 HD
HETATM   15  H2  UNL     1     -29.494  67.250  24.595  1.00  0.00     0.174 HD
ENDBRANCH   1  13
TORSDOF 2
ENDMDL
MODEL 9
REMARK VINA RESULT:      -5.2      2.339      3.693
REMARK  2 active torsions:
REMARK  status: ('A' for Active; 'I' for Inactive)
REMARK    1  A    between atoms: N1_1  and  C1_2 
REMARK    2  A    between atoms: C3_6  and  N4_7 
ROOT
HETATM    1  C1  UNL     1     -22.668  66.577  24.957  1.00  0.00     0.737 A 
HETATM    2  N2  UNL     1     -22.251  65.984  26.105  1.00  0.00    -0.055 NA
HETATM    3  C2  UNL     1     -23.135  65.300  26.874  1.00  0.00     0.272 A 
HETATM    4  N3  UNL     1     -24.435  65.211  26.496  1.00  0.00    -0.055 NA
HETATM    5  C3  UNL     1     -24.863  65.802  25.349  1.00  0.00     0.741 A 
HETATM    6  N5  UNL     1     -23.969  66.486  24.583  1.00  0.00     0.130 NA
ENDROOT
BRANCH   5   7
HETATM    7  N4  UNL     1     -26.246  65.706  24.948  1.00  0.00    -0.210 N 
HETATM    8  C4  UNL     1     -27.199  64.963  25.785  1.00  0.00     0.167 C 
HETATM    9  C5  UNL     1     -28.631  65.431  25.514  1.00  0.00     0.188 C 
HETATM   10  O1  UNL     1     -28.911  65.421  24.128  1.00  0.00    -0.388 OA
HETATM   11  C6  UNL     1     -28.108  66.386  23.479  1.00  0.00     0.188 C 
HETATM   12  C7  UNL     1     -26.626  66.006  23.560  1.00  0.00     0.167 C 
ENDBRANCH   5   7
BRANCH   1  13
HETATM   13  N1  UNL     1     -21.740  67.296  24.148  1.00  0.00    -0.230 N 
HETATM   14  H1  UNL     1     -21.795  68.336  24.077  1.00  0.00     0.174 HD
HETATM   15  H2  UNL     1     -20.997  66.788  23.618  1.00  0.00     0.174 HD
ENDBRANCH   1  13
TORSDOF 2
ENDMDL
