MODEL 1
REMARK VINA RESULT:      -8.9      0.000      0.000
REMARK  3 active torsions:
REMARK  status: ('A' for Active; 'I' for Inactive)
REMARK       I    between atoms: N1_1  and  C1_2 
REMARK    1  A    between atoms: C1_2  and  C2_4 
REMARK    2  A    between atoms: C3_5  and  N2_6 
REMARK    3  A    between atoms: C10_13  and  C11_14 
ROOT
HETATM    1  C2  UNL     1     -26.400  66.115  24.345  1.00  0.00     0.057 A 
HETATM    2  C3  UNL     1     -27.466  65.321  24.552  1.00  0.00     0.153 A 
HETATM    3  C4  UNL     1     -27.296  64.610  25.812  1.00  0.00     0.006 A 
HETATM    4  C5  UNL     1     -28.125  63.680  26.446  1.00  0.00     0.014 A 
HETATM    5  C6  UNL     1     -27.712  63.152  27.680  1.00  0.00     0.001 A 
HETATM    6  C7  UNL     1     -26.492  63.556  28.256  1.00  0.00     0.001 A 
HETATM    7  C8  UNL     1     -25.676  64.491  27.599  1.00  0.00     0.009 A 
HETATM    8  C9  UNL     1     -26.101  65.000  26.370  1.00  0.00    -0.032 A 
HETATM    9  C10 UNL     1     -25.410  65.991  25.489  1.00  0.00     0.093 A 
ENDROOT
BRANCH   9  10
HETATM   10  C11 UNL     1     -24.064  65.470  25.029  1.00  0.00    -0.045 A 
HETATM   11  C12 UNL     1     -23.915  64.151  24.560  1.00  0.00     0.008 A 
HETATM   12  C13 UNL     1     -22.664  63.684  24.147  1.00  0.00     0.001 A 
HETATM   13  C14 UNL     1     -21.550  64.525  24.202  1.00  0.00     0.000 A 
HETATM   14  C15 UNL     1     -21.685  65.833  24.673  1.00  0.00     0.001 A 
HETATM   15  C16 UNL     1     -22.934  66.305  25.087  1.00  0.00     0.008 A 
ENDBRANCH   9  10
BRANCH   1  16
HETATM   16  C1  UNL     1     -26.198  67.007  23.175  1.00  0.00     0.248 C 
HETATM   17  N1  UNL     1     -26.704  66.648  21.887  1.00  0.00    -0.366 N 
HETATM   18  H1  UNL     1     -26.584  67.299  21.080  1.00  0.00     0.159 HD
HETATM   19  H2  UNL     1     -27.165  65.729  21.717  1.00  0.00     0.159 HD
HETATM   20  O1  UNL     1     -25.587  68.101  23.304  1.00  0.00    -0.268 OA
ENDBRANCH   1  16
BRANCH   2  21
HETATM   21  N2  UNL     1     -28.594  65.194  23.673  1.00  0.00    -0.048 N 
HETATM   22  H3  UNL     1     -28.952  66.145  23.431  1.00  0.00     0.281 HD
HETATM   23  H4  UNL     1     -28.322  64.704  22.793  1.00  0.00     0.281 HD
HETATM   24  H5  UNL     1     -29.340  64.632  24.141  1.00  0.00     0.281 HD
ENDBRANCH   2  21
TORSDOF 3
ENDMDL
MODEL 2
REMARK VINA RESULT:      -8.6      1.906      2.378
REMARK  3 active torsions:
REMARK  status: ('A' for Active; 'I' for Inactive)
REMARK       I    between atoms: N1_1  and  C1_2 
REMARK    1  A    between atoms: C1_2  and  C2_4 
REMARK    2  A    between atoms: C3_5  and  N2_6 
REMARK    3  A    between atoms: C10_13  and  C11_14 
ROOT
HETATM    1  C2  UNL     1     -24.606  65.531  25.537  1.00  0.00     0.057 A 
HETATM    2  C3  UNL     1     -25.908  65.234  25.699  1.00  0.00     0.153 A 
HETATM    3  C4  UNL     1     -26.037  64.162  26.676  1.00  0.00     0.006 A 
HETATM    4  C5  UNL     1     -27.175  63.516  27.168  1.00  0.00     0.014 A 
HETATM    5  C6  UNL     1     -27.006  62.507  28.131  1.00  0.00     0.001 A 
HETATM    6  C7  UNL     1     -25.717  62.162  28.581  1.00  0.00     0.001 A 
HETATM    7  C8  UNL     1     -24.589  62.824  28.072  1.00  0.00     0.009 A 
HETATM    8  C9  UNL     1     -24.778  63.821  27.111  1.00  0.00    -0.032 A 
HETATM    9  C10 UNL     1     -23.743  64.653  26.425  1.00  0.00     0.093 A 
ENDROOT
BRANCH   9  10
HETATM   10  C11 UNL     1     -22.788  63.791  25.625  1.00  0.00    -0.045 A 
HETATM   11  C12 UNL     1     -23.011  63.532  24.259  1.00  0.00     0.008 A 
HETATM   12  C13 UNL     1     -22.124  62.727  23.538  1.00  0.00     0.001 A 
HETATM   13  C14 UNL     1     -21.012  62.169  24.173  1.00  0.00     0.000 A 
HETATM   14  C15 UNL     1     -20.785  62.413  25.530  1.00  0.00     0.001 A 
HETATM   15  C16 UNL     1     -21.669  63.218  26.255  1.00  0.00     0.008 A 
ENDBRANCH   9  10
BRANCH   1  16
HETATM   16  C1  UNL     1     -24.062  66.573  24.631  1.00  0.00     0.248 C 
HETATM   17  N1  UNL     1     -22.765  67.131  24.855  1.00  0.00    -0.366 N 
HETATM   18  H1  UNL     1     -22.380  67.840  24.192  1.00  0.00     0.159 HD
HETATM   19  H2  UNL     1     -22.196  66.875  25.690  1.00  0.00     0.159 HD
HETATM   20  O1  UNL     1     -24.732  66.974  23.643  1.00  0.00    -0.268 OA
ENDBRANCH   1  16
BRANCH   2  21
HETATM   21  N2  UNL     1     -27.000  65.871  25.018  1.00  0.00    -0.048 N 
HETATM   22  H3  UNL     1     -27.853  65.831  25.620  1.00  0.00     0.281 HD
HETATM   23  H4  UNL     1     -26.777  66.870  24.819  1.00  0.00     0.281 HD
HETATM   24  H5  UNL     1     -27.174  65.388  24.108  1.00  0.00     0.281 HD
ENDBRANCH   2  21
TORSDOF 3
ENDMDL
MODEL 3
REMARK VINA RESULT:      -8.5      2.498      3.455
REMARK  3 active torsions:
REMARK  status: ('A' for Active; 'I' for Inactive)
REMARK       I    between atoms: N1_1  and  C1_2 
REMARK    1  A    between atoms: C1_2  and  C2_4 
REMARK    2  A    between atoms: C3_5  and  N2_6 
REMARK    3  A    between atoms: C10_13  and  C11_14 
ROOT
HETATM    1  C2  UNL     1     -22.976  66.345  25.197  1.00  0.00     0.057 A 
HETATM    2  C3  UNL     1     -24.219  66.530  24.716  1.00  0.00     0.153 A 
HETATM    3  C4  UNL     1     -25.141  65.652  25.423  1.00  0.00     0.006 A 
HETATM    4  C5  UNL     1     -26.521  65.481  25.276  1.00  0.00     0.014 A 
HETATM    5  C6  UNL     1     -27.171  64.558  26.112  1.00  0.00     0.001 A 
HETATM    6  C7  UNL     1     -26.441  63.827  27.069  1.00  0.00     0.001 A 
HETATM    7  C8  UNL     1     -25.056  64.016  27.196  1.00  0.00     0.009 A 
HETATM    8  C9  UNL     1     -24.427  64.934  26.353  1.00  0.00    -0.032 A 
HETATM    9  C10 UNL     1     -22.978  65.299  26.297  1.00  0.00     0.093 A 
ENDROOT
BRANCH   9  10
HETATM   10  C11 UNL     1     -22.124  64.098  25.948  1.00  0.00    -0.045 A 
HETATM   11  C12 UNL     1     -20.985  63.768  26.708  1.00  0.00     0.008 A 
HETATM   12  C13 UNL     1     -20.204  62.661  26.367  1.00  0.00     0.001 A 
HETATM   13  C14 UNL     1     -20.547  61.876  25.263  1.00  0.00     0.000 A 
HETATM   14  C15 UNL     1     -21.670  62.198  24.498  1.00  0.00     0.001 A 
HETATM   15  C16 UNL     1     -22.455  63.305  24.836  1.00  0.00     0.008 A 
ENDBRANCH   9  10
BRANCH   1  16
HETATM   16  C1  UNL     1     -21.756  67.058  24.742  1.00  0.00     0.248 C 
HETATM   17  N1  UNL     1     -21.533  68.424  25.098  1.00  0.00    -0.366 N 
HETATM   18  H1  UNL     1     -20.655  68.905  24.799  1.00  0.00     0.159 HD
HETATM   19  H2  UNL     1     -22.243  68.976  25.625  1.00  0.00     0.159 HD
HETATM   20  O1  UNL     1     -20.893  66.465  24.043  1.00  0.00    -0.268 OA
ENDBRANCH   1  16
BRANCH   2  21
HETATM   21  N2  UNL     1     -24.581  67.448  23.673  1.00  0.00    -0.048 N 
HETATM   22  H3  UNL     1     -23.730  67.695  23.119  1.00  0.00     0.281 HD
HETATM   23  H4  UNL     1     -25.284  67.020  23.032  1.00  0.00     0.281 HD
HETATM   24  H5  UNL     1     -25.003  68.306  24.093  1.00  0.00     0.281 HD
ENDBRANCH   2  21
TORSDOF 3
ENDMDL
MODEL 4
REMARK VINA RESULT:      -8.0      3.747      5.233
REMARK  3 active torsions:
REMARK  status: ('A' for Active; 'I' for Inactive)
REMARK       I    between atoms: N1_1  and  C1_2 
REMARK    1  A    between atoms: C1_2  and  C2_4 
REMARK    2  A    between atoms: C3_5  and  N2_6 
REMARK    3  A    between atoms: C10_13  and  C11_14 
ROOT
HETATM    1  C2  UNL     1     -25.769  62.832  27.934  1.00  0.00     0.057 A 
HETATM    2  C3  UNL     1     -26.774  63.549  27.399  1.00  0.00     0.153 A 
HETATM    3  C4  UNL     1     -26.236  64.442  26.382  1.00  0.00     0.006 A 
HETATM    4  C5  UNL     1     -26.880  65.375  25.563  1.00  0.00     0.014 A 
HETATM    5  C6  UNL     1     -26.105  66.106  24.648  1.00  0.00     0.001 A 
HETATM    6  C7  UNL     1     -24.715  65.898  24.567  1.00  0.00     0.001 A 
HETATM    7  C8  UNL     1     -24.091  64.957  25.401  1.00  0.00     0.009 A 
HETATM    8  C9  UNL     1     -24.877  64.244  26.308  1.00  0.00    -0.032 A 
HETATM    9  C10 UNL     1     -24.445  63.204  27.291  1.00  0.00     0.093 A 
ENDROOT
BRANCH   9  10
HETATM   10  C11 UNL     1     -23.462  63.774  28.293  1.00  0.00    -0.045 A 
HETATM   11  C12 UNL     1     -23.835  64.808  29.173  1.00  0.00     0.008 A 
HETATM   12  C13 UNL     1     -22.912  65.327  30.085  1.00  0.00     0.001 A 
HETATM   13  C14 UNL     1     -21.609  64.825  30.126  1.00  0.00     0.000 A 
HETATM   14  C15 UNL     1     -21.226  63.804  29.252  1.00  0.00     0.001 A 
HETATM   15  C16 UNL     1     -22.146  63.281  28.338  1.00  0.00     0.008 A 
ENDBRANCH   9  10
BRANCH   1  16
HETATM   16  C1  UNL     1     -25.908  61.806  28.998  1.00  0.00     0.248 C 
HETATM   17  N1  UNL     1     -26.077  62.189  30.364  1.00  0.00    -0.366 N 
HETATM   18  H1  UNL     1     -26.205  61.459  31.099  1.00  0.00     0.159 HD
HETATM   19  H2  UNL     1     -26.040  63.188  30.662  1.00  0.00     0.159 HD
HETATM   20  O1  UNL     1     -25.890  60.580  28.709  1.00  0.00    -0.268 OA
ENDBRANCH   1  16
BRANCH   2  21
HETATM   21  N2  UNL     1     -28.158  63.449  27.769  1.00  0.00    -0.048 N 
HETATM   22  H3  UNL     1     -28.727  64.064  27.144  1.00  0.00     0.281 HD
HETATM   23  H4  UNL     1     -28.496  62.468  27.671  1.00  0.00     0.281 HD
HETATM   24  H5  UNL     1     -28.275  63.737  28.766  1.00  0.00     0.281 HD
ENDBRANCH   2  21
TORSDOF 3
ENDMDL
MODEL 5
REMARK VINA RESULT:      -7.9      3.233      6.072
REMARK  3 active torsions:
REMARK  status: ('A' for Active; 'I' for Inactive)
REMARK       I    between atoms: N1_1  and  C1_2 
REMARK    1  A    between atoms: C1_2  and  C2_4 
REMARK    2  A    between atoms: C3_5  and  N2_6 
REMARK    3  A    between atoms: C10_13  and  C11_14 
ROOT
HETATM    1  C2  UNL     1     -21.571  64.167  24.712  1.00  0.00     0.057 A 
HETATM    2  C3  UNL     1     -20.642  65.004  24.216  1.00  0.00     0.153 A 
HETATM    3  C4  UNL     1     -20.566  66.188  25.060  1.00  0.00     0.006 A 
HETATM    4  C5  UNL     1     -19.761  67.327  24.952  1.00  0.00     0.014 A 
HETATM    5  C6  UNL     1     -19.890  68.329  25.929  1.00  0.00     0.001 A 
HETATM    6  C7  UNL     1     -20.808  68.179  26.985  1.00  0.00     0.001 A 
HETATM    7  C8  UNL     1     -21.606  67.027  27.071  1.00  0.00     0.009 A 
HETATM    8  C9  UNL     1     -21.468  66.045  26.088  1.00  0.00    -0.032 A 
HETATM    9  C10 UNL     1     -22.201  64.748  25.965  1.00  0.00     0.093 A 
ENDROOT
BRANCH   9  10
HETATM   10  C11 UNL     1     -23.691  64.975  25.806  1.00  0.00    -0.045 A 
HETATM   11  C12 UNL     1     -24.195  65.833  24.810  1.00  0.00     0.008 A 
HETATM   12  C13 UNL     1     -25.572  66.037  24.683  1.00  0.00     0.001 A 
HETATM   13  C14 UNL     1     -26.458  65.392  25.549  1.00  0.00     0.000 A 
HETATM   14  C15 UNL     1     -25.968  64.544  26.546  1.00  0.00     0.001 A 
HETATM   15  C16 UNL     1     -24.591  64.337  26.676  1.00  0.00     0.008 A 
ENDBRANCH   9  10
BRANCH   1  16
HETATM   16  C1  UNL     1     -21.942  62.848  24.141  1.00  0.00     0.248 C 
HETATM   17  N1  UNL     1     -21.536  61.635  24.778  1.00  0.00    -0.366 N 
HETATM   18  H1  UNL     1     -21.830  60.714  24.385  1.00  0.00     0.159 HD
HETATM   19  H2  UNL     1     -20.916  61.639  25.617  1.00  0.00     0.159 HD
HETATM   20  O1  UNL     1     -22.633  62.778  23.089  1.00  0.00    -0.268 OA
ENDBRANCH   1  16
BRANCH   2  21
HETATM   21  N2  UNL     1     -19.849  64.768  23.042  1.00  0.00    -0.048 N 
HETATM   22  H3  UNL     1     -20.251  63.963  22.511  1.00  0.00     0.281 HD
HETATM   23  H4  UNL     1     -19.846  65.608  22.425  1.00  0.00     0.281 HD
HETATM   24  H5  UNL     1     -18.863  64.565  23.322  1.00  0.00     0.281 HD
ENDBRANCH   2  21
TORSDOF 3
ENDMDL
MODEL 6
REMARK VINA RESULT:      -7.7      3.641      4.738
REMARK  3 active torsions:
REMARK  status: ('A' for Active; 'I' for Inactive)
REMARK       I    between atoms: N1_1  and  C1_2 
REMARK    1  A    between atoms: C1_2  and  C2_4 
REMARK    2  A    between atoms: C3_5  and  N2_6 
REMARK    3  A    between atoms: C10_13  and  C11_14 
ROOT
HETATM    1  C2  UNL     1     -22.625  63.734  26.493  1.00  0.00     0.057 A 
HETATM    2  C3  UNL     1     -23.804  63.358  27.018  1.00  0.00     0.153 A 
HETATM    3  C4  UNL     1     -24.868  64.157  26.426  1.00  0.00     0.006 A 
HETATM    4  C5  UNL     1     -26.249  64.138  26.652  1.00  0.00     0.014 A 
HETATM    5  C6  UNL     1     -27.056  65.025  25.921  1.00  0.00     0.001 A 
HETATM    6  C7  UNL     1     -26.479  65.907  24.987  1.00  0.00     0.001 A 
HETATM    7  C8  UNL     1     -25.091  65.908  24.779  1.00  0.00     0.009 A 
HETATM    8  C9  UNL     1     -24.305  65.023  25.519  1.00  0.00    -0.032 A 
HETATM    9  C10 UNL     1     -22.821  64.844  25.476  1.00  0.00     0.093 A 
ENDROOT
BRANCH   9  10
HETATM   10  C11 UNL     1     -22.105  66.119  25.873  1.00  0.00    -0.045 A 
HETATM   11  C12 UNL     1     -21.630  67.021  24.901  1.00  0.00     0.008 A 
HETATM   12  C13 UNL     1     -20.965  68.188  25.285  1.00  0.00     0.001 A 
HETATM   13  C14 UNL     1     -20.761  68.465  26.639  1.00  0.00     0.000 A 
HETATM   14  C15 UNL     1     -21.221  67.573  27.612  1.00  0.00     0.001 A 
HETATM   15  C16 UNL     1     -21.888  66.404  27.232  1.00  0.00     0.008 A 
ENDBRANCH   9  10
BRANCH   1  16
HETATM   16  C1  UNL     1     -21.301  63.155  26.833  1.00  0.00     0.248 C 
HETATM   17  N1  UNL     1     -20.438  62.654  25.810  1.00  0.00    -0.366 N 
HETATM   18  H1  UNL     1     -19.496  62.279  26.058  1.00  0.00     0.159 HD
HETATM   19  H2  UNL     1     -20.736  62.619  24.811  1.00  0.00     0.159 HD
HETATM   20  O1  UNL     1     -20.913  63.106  28.031  1.00  0.00    -0.268 OA
ENDBRANCH   1  16
BRANCH   2  21
HETATM   21  N2  UNL     1     -23.988  62.332  28.006  1.00  0.00    -0.048 N 
HETATM   22  H3  UNL     1     -23.389  61.510  27.766  1.00  0.00     0.281 HD
HETATM   23  H4  UNL     1     -23.718  62.678  28.952  1.00  0.00     0.281 HD
HETATM   24  H5  UNL     1     -24.994  62.052  28.036  1.00  0.00     0.281 HD
ENDBRANCH   2  21
TORSDOF 3
ENDMDL
MODEL 7
REMARK VINA RESULT:      -7.7      2.509      5.323
REMARK  3 active torsions:
REMARK  status: ('A' for Active; 'I' for Inactive)
REMARK       I    between atoms: N1_1  and  C1_2 
REMARK    1  A    between atoms: C1_2  and  C2_4 
REMARK    2  A    between atoms: C3_5  and  N2_6 
REMARK    3  A    between atoms: C10_13  and  C11_14 
ROOT
HETATM    1  C2  UNL     1     -26.660  64.186  26.651  1.00  0.00     0.057 A 
HETATM    2  C3  UNL     1     -25.869  64.927  25.855  1.00  0.00     0.153 A 
HETATM    3  C4  UNL     1     -24.496  64.454  25.969  1.00  0.00     0.006 A 
HETATM    4  C5  UNL     1     -23.328  64.904  25.347  1.00  0.00     0.014 A 
HETATM    5  C6  UNL     1     -22.122  64.246  25.638  1.00  0.00     0.001 A 
HETATM    6  C7  UNL     1     -22.101  63.161  26.535  1.00  0.00     0.001 A 
HETATM    7  C8  UNL     1     -23.287  62.728  27.149  1.00  0.00     0.009 A 
HETATM    8  C9  UNL     1     -24.475  63.399  26.851  1.00  0.00    -0.032 A 
HETATM    9  C10 UNL     1     -25.848  63.128  27.377  1.00  0.00     0.093 A 
ENDROOT
BRANCH   9  10
HETATM   10  C11 UNL     1     -25.901  63.296  28.881  1.00  0.00    -0.045 A 
HETATM   11  C12 UNL     1     -25.238  64.362  29.519  1.00  0.00     0.008 A 
HETATM   12  C13 UNL     1     -25.291  64.497  30.909  1.00  0.00     0.001 A 
HETATM   13  C14 UNL     1     -26.000  63.570  31.676  1.00  0.00     0.000 A 
HETATM   14  C15 UNL     1     -26.657  62.505  31.055  1.00  0.00     0.001 A 
HETATM   15  C16 UNL     1     -26.607  62.366  29.664  1.00  0.00     0.008 A 
ENDBRANCH   9  10
BRANCH   1  16
HETATM   16  C1  UNL     1     -28.127  64.350  26.810  1.00  0.00     0.248 C 
HETATM   17  N1  UNL     1     -29.030  63.832  25.831  1.00  0.00    -0.366 N 
HETATM   18  H1  UNL     1     -30.061  63.925  25.970  1.00  0.00     0.159 HD
HETATM   19  H2  UNL     1     -28.689  63.388  24.952  1.00  0.00     0.159 HD
HETATM   20  O1  UNL     1     -28.598  64.940  27.818  1.00  0.00    -0.268 OA
ENDBRANCH   1  16
BRANCH   2  21
HETATM   21  N2  UNL     1     -26.306  66.012  25.022  1.00  0.00    -0.048 N 
HETATM   22  H3  UNL     1     -27.351  66.025  24.992  1.00  0.00     0.281 HD
HETATM   23  H4  UNL     1     -25.970  66.924  25.398  1.00  0.00     0.281 HD
HETATM   24  H5  UNL     1     -25.917  65.892  24.059  1.00  0.00     0.281 HD
ENDBRANCH   2  21
TORSDOF 3
ENDMDL
MODEL 8
REMARK VINA RESULT:      -7.7      4.315      6.618
REMARK  3 active torsions:
REMARK  status: ('A' for Active; 'I' for Inactive)
REMARK       I    between atoms: N1_1  and  C1_2 
REMARK    1  A    between atoms: C1_2  and  C2_4 
REMARK    2  A    between atoms: C3_5  and  N2_6 
REMARK    3  A    between atoms: C10_13  and  C11_14 
ROOT
HETATM    1  C2  UNL     1     -21.604  64.099  27.799  1.00  0.00     0.057 A 
HETATM    2  C3  UNL     1     -20.610  63.300  27.373  1.00  0.00     0.153 A 
HETATM    3  C4  UNL     1     -20.874  62.900  25.997  1.00  0.00     0.006 A 
HETATM    4  C5  UNL     1     -20.140  62.079  25.135  1.00  0.00     0.014 A 
HETATM    5  C6  UNL     1     -20.630  61.869  23.837  1.00  0.00     0.001 A 
HETATM    6  C7  UNL     1     -21.833  62.473  23.423  1.00  0.00     0.001 A 
HETATM    7  C8  UNL     1     -22.553  63.292  24.307  1.00  0.00     0.009 A 
HETATM    8  C9  UNL     1     -22.052  63.485  25.596  1.00  0.00    -0.032 A 
HETATM    9  C10 UNL     1     -22.636  64.301  26.705  1.00  0.00     0.093 A 
ENDROOT
BRANCH   9  10
HETATM   10  C11 UNL     1     -24.003  63.784  27.103  1.00  0.00    -0.045 A 
HETATM   11  C12 UNL     1     -24.158  62.515  27.695  1.00  0.00     0.008 A 
HETATM   12  C13 UNL     1     -25.428  62.050  28.049  1.00  0.00     0.001 A 
HETATM   13  C14 UNL     1     -26.554  62.842  27.812  1.00  0.00     0.000 A 
HETATM   14  C15 UNL     1     -26.413  64.099  27.219  1.00  0.00     0.001 A 
HETATM   15  C16 UNL     1     -25.144  64.568  26.863  1.00  0.00     0.008 A 
ENDBRANCH   9  10
BRANCH   1  16
HETATM   16  C1  UNL     1     -21.699  64.720  29.145  1.00  0.00     0.248 C 
HETATM   17  N1  UNL     1     -22.167  66.062  29.298  1.00  0.00    -0.366 N 
HETATM   18  H1  UNL     1     -22.260  66.477  30.252  1.00  0.00     0.159 HD
HETATM   19  H2  UNL     1     -22.389  66.662  28.475  1.00  0.00     0.159 HD
HETATM   20  O1  UNL     1     -21.378  64.068  30.174  1.00  0.00    -0.268 OA
ENDBRANCH   1  16
BRANCH   2  21
HETATM   21  N2  UNL     1     -19.467  62.903  28.148  1.00  0.00    -0.048 N 
HETATM   22  H3  UNL     1     -19.107  61.991  27.789  1.00  0.00     0.281 HD
HETATM   23  H4  UNL     1     -18.708  63.615  28.077  1.00  0.00     0.281 HD
HETATM   24  H5  UNL     1     -19.740  62.817  29.153  1.00  0.00     0.281 HD
ENDBRANCH   2  21
TORSDOF 3
ENDMDL
MODEL 9
REMARK VINA RESULT:      -7.4      3.282      5.813
REMARK  3 active torsions:
REMARK  status: ('A' for Active; 'I' for Inactive)
REMARK       I    between atoms: N1_1  and  C1_2 
REMARK    1  A    between atoms: C1_2  and  C2_4 
REMARK    2  A    between atoms: C3_5  and  N2_6 
REMARK    3  A    between atoms: C10_13  and  C11_14 
ROOT
HETATM    1  C2  UNL     1     -21.275  66.095  25.760  1.00  0.00     0.057 A 
HETATM    2  C3  UNL     1     -20.393  65.216  26.268  1.00  0.00     0.153 A 
HETATM    3  C4  UNL     1     -20.581  63.923  25.623  1.00  0.00     0.006 A 
HETATM    4  C5  UNL     1     -19.913  62.710  25.816  1.00  0.00     0.014 A 
HETATM    5  C6  UNL     1     -20.298  61.606  25.037  1.00  0.00     0.001 A 
HETATM    6  C7  UNL     1     -21.332  61.730  24.089  1.00  0.00     0.001 A 
HETATM    7  C8  UNL     1     -21.988  62.959  23.915  1.00  0.00     0.009 A 
HETATM    8  C9  UNL     1     -21.595  64.043  24.703  1.00  0.00    -0.032 A 
HETATM    9  C10 UNL     1     -22.141  65.435  24.702  1.00  0.00     0.093 A 
ENDROOT
BRANCH   9  10
HETATM   10  C11 UNL     1     -23.609  65.446  25.074  1.00  0.00    -0.045 A 
HETATM   11  C12 UNL     1     -24.083  64.735  26.194  1.00  0.00     0.008 A 
HETATM   12  C13 UNL     1     -25.443  64.750  26.518  1.00  0.00     0.001 A 
HETATM   13  C14 UNL     1     -26.342  65.469  25.727  1.00  0.00     0.000 A 
HETATM   14  C15 UNL     1     -25.885  66.172  24.610  1.00  0.00     0.001 A 
HETATM   15  C16 UNL     1     -24.526  66.160  24.282  1.00  0.00     0.008 A 
ENDBRANCH   9  10
BRANCH   1  16
HETATM   16  C1  UNL     1     -21.399  67.522  26.151  1.00  0.00     0.248 C 
HETATM   17  N1  UNL     1     -21.511  68.545  25.159  1.00  0.00    -0.366 N 
HETATM   18  H1  UNL     1     -21.630  69.541  25.448  1.00  0.00     0.159 HD
HETATM   19  H2  UNL     1     -21.441  68.330  24.141  1.00  0.00     0.159 HD
HETATM   20  O1  UNL     1     -21.420  67.851  27.367  1.00  0.00    -0.268 OA
ENDBRANCH   1  16
BRANCH   2  21
HETATM   21  N2  UNL     1     -19.420  65.503  27.284  1.00  0.00    -0.048 N 
HETATM   22  H3  UNL     1     -19.866  66.074  28.038  1.00  0.00     0.281 HD
HETATM   23  H4  UNL     1     -19.054  64.622  27.704  1.00  0.00     0.281 HD
HETATM   24  H5  UNL     1     -18.617  66.022  26.862  1.00  0.00     0.281 HD
ENDBRANCH   2  21
TORSDOF 3
ENDMDL
