MODEL 1
REMARK VINA RESULT:      -6.1      0.000      0.000
REMARK  4 active torsions:
REMARK  status: ('A' for Active; 'I' for Inactive)
REMARK    1  A    between atoms: O1_2  and  C1_3 
REMARK    2  A    between atoms: C1_3  and  O2_4 
REMARK    3  A    between atoms: C1_3  and  C4_7 
REMARK    4  A    between atoms: O2_4  and  C2_5 
ROOT
HETATM    1  C4  UNL     1     -27.343  64.696  26.100  1.00  0.00     0.114 A 
HETATM    2  C5  UNL     1     -28.063  65.099  24.940  1.00  0.00     0.219 A 
HETATM    3  O3  UNL     1     -29.394  64.751  24.742  1.00  0.00    -0.169 OA
HETATM    4  N1  UNL     1     -27.456  65.846  23.981  1.00  0.00    -0.223 NA
HETATM    5  C6  UNL     1     -26.163  66.245  24.067  1.00  0.00     0.053 A 
HETATM    6  C7  UNL     1     -25.632  66.977  23.088  1.00  0.00     0.045 C 
HETATM    7  C8  UNL     1     -25.406  65.877  25.182  1.00  0.00     0.072 A 
HETATM    8  C9  UNL     1     -25.986  65.109  26.194  1.00  0.00     0.129 A 
HETATM    9  O4  UNL     1     -25.185  64.772  27.282  1.00  0.00    -0.191 OA
ENDROOT
BRANCH   1  10
HETATM   10  C1  UNL     1     -27.928  63.946  27.075  1.00  0.00     0.196 C 
BRANCH  10  11
HETATM   11  O1  UNL     1     -29.070  64.416  27.733  1.00  0.00    -0.340 OA
HETATM   12  H1  UNL     1     -29.832  63.819  28.021  1.00  0.00     0.220 HD
ENDBRANCH  10  11
BRANCH  10  13
HETATM   13  O2  UNL     1     -27.390  62.692  27.417  1.00  0.00    -0.330 OA
BRANCH  13  14
HETATM   14  C2  UNL     1     -27.114  62.245  28.742  1.00  0.00     0.173 C 
HETATM   15  C3  UNL     1     -25.743  61.583  28.816  1.00  0.00     0.034 C 
ENDBRANCH  13  14
ENDBRANCH  10  13
ENDBRANCH   1  10
TORSDOF 4
ENDMDL
MODEL 2
REMARK VINA RESULT:      -6.0      2.590      4.153
REMARK  4 active torsions:
REMARK  status: ('A' for Active; 'I' for Inactive)
REMARK    1  A    between atoms: O1_2  and  C1_3 
REMARK    2  A    between atoms: C1_3  and  O2_4 
REMARK    3  A    between atoms: C1_3  and  C4_7 
REMARK    4  A    between atoms: O2_4  and  C2_5 
ROOT
HETATM    1  C4  UNL     1     -25.324  66.039  24.616  1.00  0.00     0.114 A 
HETATM    2  C5  UNL     1     -25.998  66.578  23.483  1.00  0.00     0.219 A 
HETATM    3  O3  UNL     1     -25.318  67.249  22.473  1.00  0.00    -0.169 OA
HETATM    4  N1  UNL     1     -27.344  66.446  23.358  1.00  0.00    -0.223 NA
HETATM    5  C6  UNL     1     -28.110  65.812  24.280  1.00  0.00     0.053 A 
HETATM    6  C7  UNL     1     -29.426  65.720  24.093  1.00  0.00     0.045 C 
HETATM    7  C8  UNL     1     -27.504  65.265  25.414  1.00  0.00     0.072 A 
HETATM    8  C9  UNL     1     -26.123  65.375  25.586  1.00  0.00     0.129 A 
HETATM    9  O4  UNL     1     -25.574  64.811  26.735  1.00  0.00    -0.191 OA
ENDROOT
BRANCH   1  10
HETATM   10  C1  UNL     1     -23.975  66.158  24.765  1.00  0.00     0.196 C 
BRANCH  10  11
HETATM   11  O1  UNL     1     -23.331  67.347  24.405  1.00  0.00    -0.340 OA
HETATM   12  H1  UNL     1     -23.811  68.228  24.290  1.00  0.00     0.220 HD
ENDBRANCH  10  11
BRANCH  10  13
HETATM   13  O2  UNL     1     -23.228  65.089  25.290  1.00  0.00    -0.330 OA
BRANCH  13  14
HETATM   14  C2  UNL     1     -22.810  63.937  24.562  1.00  0.00     0.173 C 
HETATM   15  C3  UNL     1     -22.308  62.851  25.508  1.00  0.00     0.034 C 
ENDBRANCH  13  14
ENDBRANCH  10  13
ENDBRANCH   1  10
TORSDOF 4
ENDMDL
MODEL 3
REMARK VINA RESULT:      -6.0      0.749      2.262
REMARK  4 active torsions:
REMARK  status: ('A' for Active; 'I' for Inactive)
REMARK    1  A    between atoms: O1_2  and  C1_3 
REMARK    2  A    between atoms: C1_3  and  O2_4 
REMARK    3  A    between atoms: C1_3  and  C4_7 
REMARK    4  A    between atoms: O2_4  and  C2_5 
ROOT
HETATM    1  C4  UNL     1     -27.303  64.704  26.205  1.00  0.00     0.114 A 
HETATM    2  C5  UNL     1     -25.940  65.110  26.266  1.00  0.00     0.219 A 
HETATM    3  O3  UNL     1     -25.121  64.779  27.340  1.00  0.00    -0.169 OA
HETATM    4  N1  UNL     1     -25.396  65.844  25.260  1.00  0.00    -0.223 NA
HETATM    5  C6  UNL     1     -26.099  66.224  24.165  1.00  0.00     0.053 A 
HETATM    6  C7  UNL     1     -25.501  66.944  23.216  1.00  0.00     0.045 C 
HETATM    7  C8  UNL     1     -27.441  65.857  24.050  1.00  0.00     0.072 A 
HETATM    8  C9  UNL     1     -28.044  65.102  25.059  1.00  0.00     0.129 A 
HETATM    9  O4  UNL     1     -29.385  64.764  24.892  1.00  0.00    -0.191 OA
ENDROOT
BRANCH   1  10
HETATM   10  C1  UNL     1     -27.872  63.969  27.201  1.00  0.00     0.196 C 
BRANCH  10  11
HETATM   11  O1  UNL     1     -28.936  64.494  27.941  1.00  0.00    -0.340 OA
HETATM   12  H1  UNL     1     -29.798  64.817  27.526  1.00  0.00     0.220 HD
ENDBRANCH  10  11
BRANCH  10  13
HETATM   13  O2  UNL     1     -27.397  62.675  27.480  1.00  0.00    -0.330 OA
BRANCH  13  14
HETATM   14  C2  UNL     1     -27.034  62.189  28.771  1.00  0.00     0.173 C 
HETATM   15  C3  UNL     1     -25.639  61.576  28.746  1.00  0.00     0.034 C 
ENDBRANCH  13  14
ENDBRANCH  10  13
ENDBRANCH   1  10
TORSDOF 4
ENDMDL
MODEL 4
REMARK VINA RESULT:      -6.0      2.687      4.401
REMARK  4 active torsions:
REMARK  status: ('A' for Active; 'I' for Inactive)
REMARK    1  A    between atoms: O1_2  and  C1_3 
REMARK    2  A    between atoms: C1_3  and  O2_4 
REMARK    3  A    between atoms: C1_3  and  C4_7 
REMARK    4  A    between atoms: O2_4  and  C2_5 
ROOT
HETATM    1  C4  UNL     1     -25.269  66.003  24.657  1.00  0.00     0.114 A 
HETATM    2  C5  UNL     1     -26.064  65.345  25.639  1.00  0.00     0.219 A 
HETATM    3  O3  UNL     1     -25.508  64.803  26.792  1.00  0.00    -0.169 OA
HETATM    4  N1  UNL     1     -27.407  65.228  25.469  1.00  0.00    -0.223 NA
HETATM    5  C6  UNL     1     -28.057  65.718  24.385  1.00  0.00     0.053 A 
HETATM    6  C7  UNL     1     -29.377  65.568  24.284  1.00  0.00     0.045 C 
HETATM    7  C8  UNL     1     -27.330  66.372  23.388  1.00  0.00     0.072 A 
HETATM    8  C9  UNL     1     -25.947  66.517  23.517  1.00  0.00     0.129 A 
HETATM    9  O4  UNL     1     -25.273  67.178  22.493  1.00  0.00    -0.191 OA
ENDROOT
BRANCH   1  10
HETATM   10  C1  UNL     1     -23.921  66.133  24.803  1.00  0.00     0.196 C 
BRANCH  10  11
HETATM   11  O1  UNL     1     -23.293  67.339  24.477  1.00  0.00    -0.340 OA
HETATM   12  H1  UNL     1     -22.310  67.515  24.632  1.00  0.00     0.220 HD
ENDBRANCH  10  11
BRANCH  10  13
HETATM   13  O2  UNL     1     -23.159  65.056  25.290  1.00  0.00    -0.330 OA
BRANCH  13  14
HETATM   14  C2  UNL     1     -22.828  63.879  24.556  1.00  0.00     0.173 C 
HETATM   15  C3  UNL     1     -22.224  62.821  25.473  1.00  0.00     0.034 C 
ENDBRANCH  13  14
ENDBRANCH  10  13
ENDBRANCH   1  10
TORSDOF 4
ENDMDL
MODEL 5
REMARK VINA RESULT:      -5.7      2.771      5.064
REMARK  4 active torsions:
REMARK  status: ('A' for Active; 'I' for Inactive)
REMARK    1  A    between atoms: O1_2  and  C1_3 
REMARK    2  A    between atoms: C1_3  and  O2_4 
REMARK    3  A    between atoms: C1_3  and  C4_7 
REMARK    4  A    between atoms: O2_4  and  C2_5 
ROOT
HETATM    1  C4  UNL     1     -25.063  65.922  24.709  1.00  0.00     0.114 A 
HETATM    2  C5  UNL     1     -25.895  65.260  25.656  1.00  0.00     0.219 A 
HETATM    3  O3  UNL     1     -25.368  64.550  26.728  1.00  0.00    -0.169 OA
HETATM    4  N1  UNL     1     -27.247  65.306  25.532  1.00  0.00    -0.223 NA
HETATM    5  C6  UNL     1     -27.871  65.968  24.527  1.00  0.00     0.053 A 
HETATM    6  C7  UNL     1     -29.203  65.971  24.467  1.00  0.00     0.045 C 
HETATM    7  C8  UNL     1     -27.107  66.635  23.567  1.00  0.00     0.072 A 
HETATM    8  C9  UNL     1     -25.713  66.616  23.652  1.00  0.00     0.129 A 
HETATM    9  O4  UNL     1     -25.002  67.298  22.668  1.00  0.00    -0.191 OA
ENDROOT
BRANCH   1  10
HETATM   10  C1  UNL     1     -23.705  65.891  24.810  1.00  0.00     0.196 C 
BRANCH  10  11
HETATM   11  O1  UNL     1     -23.014  64.688  24.622  1.00  0.00    -0.340 OA
HETATM   12  H1  UNL     1     -22.786  64.054  25.373  1.00  0.00     0.220 HD
ENDBRANCH  10  11
BRANCH  10  13
HETATM   13  O2  UNL     1     -22.992  67.069  25.094  1.00  0.00    -0.330 OA
BRANCH  13  14
HETATM   14  C2  UNL     1     -21.660  67.128  25.600  1.00  0.00     0.173 C 
HETATM   15  C3  UNL     1     -21.142  68.561  25.595  1.00  0.00     0.034 C 
ENDBRANCH  13  14
ENDBRANCH  10  13
ENDBRANCH   1  10
TORSDOF 4
ENDMDL
MODEL 6
REMARK VINA RESULT:      -5.6      1.399      2.296
REMARK  4 active torsions:
REMARK  status: ('A' for Active; 'I' for Inactive)
REMARK    1  A    between atoms: O1_2  and  C1_3 
REMARK    2  A    between atoms: C1_3  and  O2_4 
REMARK    3  A    between atoms: C1_3  and  C4_7 
REMARK    4  A    between atoms: O2_4  and  C2_5 
ROOT
HETATM    1  C4  UNL     1     -26.148  64.553  26.574  1.00  0.00     0.114 A 
HETATM    2  C5  UNL     1     -27.570  64.482  26.583  1.00  0.00     0.219 A 
HETATM    3  O3  UNL     1     -28.261  63.710  27.509  1.00  0.00    -0.169 OA
HETATM    4  N1  UNL     1     -28.298  65.178  25.672  1.00  0.00    -0.223 NA
HETATM    5  C6  UNL     1     -27.732  65.964  24.723  1.00  0.00     0.053 A 
HETATM    6  C7  UNL     1     -28.508  66.619  23.860  1.00  0.00     0.045 C 
HETATM    7  C8  UNL     1     -26.340  66.071  24.664  1.00  0.00     0.072 A 
HETATM    8  C9  UNL     1     -25.549  65.374  25.578  1.00  0.00     0.129 A 
HETATM    9  O4  UNL     1     -24.168  65.518  25.472  1.00  0.00    -0.191 OA
ENDROOT
BRANCH   1  10
HETATM   10  C1  UNL     1     -25.394  63.864  27.475  1.00  0.00     0.196 C 
BRANCH  10  11
HETATM   11  O1  UNL     1     -24.569  64.551  28.372  1.00  0.00    -0.340 OA
HETATM   12  H1  UNL     1     -24.408  65.547  28.329  1.00  0.00     0.220 HD
ENDBRANCH  10  11
BRANCH  10  13
HETATM   13  O2  UNL     1     -25.451  62.459  27.513  1.00  0.00    -0.330 OA
BRANCH  13  14
HETATM   14  C2  UNL     1     -25.284  61.656  28.679  1.00  0.00     0.173 C 
HETATM   15  C3  UNL     1     -26.406  61.914  29.679  1.00  0.00     0.034 C 
ENDBRANCH  13  14
ENDBRANCH  10  13
ENDBRANCH   1  10
TORSDOF 4
ENDMDL
MODEL 7
REMARK VINA RESULT:      -5.5      1.639      1.963
REMARK  4 active torsions:
REMARK  status: ('A' for Active; 'I' for Inactive)
REMARK    1  A    between atoms: O1_2  and  C1_3 
REMARK    2  A    between atoms: C1_3  and  O2_4 
REMARK    3  A    between atoms: C1_3  and  C4_7 
REMARK    4  A    between atoms: O2_4  and  C2_5 
ROOT
HETATM    1  C4  UNL     1     -26.226  64.508  26.620  1.00  0.00     0.114 A 
HETATM    2  C5  UNL     1     -27.448  64.737  25.925  1.00  0.00     0.219 A 
HETATM    3  O3  UNL     1     -28.640  64.140  26.319  1.00  0.00    -0.169 OA
HETATM    4  N1  UNL     1     -27.479  65.556  24.842  1.00  0.00    -0.223 NA
HETATM    5  C6  UNL     1     -26.378  66.190  24.368  1.00  0.00     0.053 A 
HETATM    6  C7  UNL     1     -26.482  66.980  23.299  1.00  0.00     0.045 C 
HETATM    7  C8  UNL     1     -25.151  66.003  25.007  1.00  0.00     0.072 A 
HETATM    8  C9  UNL     1     -25.069  65.170  26.125  1.00  0.00     0.129 A 
HETATM    9  O4  UNL     1     -23.820  65.020  26.723  1.00  0.00    -0.191 OA
ENDROOT
BRANCH   1  10
HETATM   10  C1  UNL     1     -26.168  63.691  27.708  1.00  0.00     0.196 C 
BRANCH  10  11
HETATM   11  O1  UNL     1     -25.586  62.423  27.603  1.00  0.00    -0.340 OA
HETATM   12  H1  UNL     1     -24.827  62.209  26.973  1.00  0.00     0.220 HD
ENDBRANCH  10  11
BRANCH  10  13
HETATM   13  O2  UNL     1     -26.684  64.123  28.942  1.00  0.00    -0.330 OA
BRANCH  13  14
HETATM   14  C2  UNL     1     -26.160  63.781  30.223  1.00  0.00     0.173 C 
HETATM   15  C3  UNL     1     -24.885  64.564  30.514  1.00  0.00     0.034 C 
ENDBRANCH  13  14
ENDBRANCH  10  13
ENDBRANCH   1  10
TORSDOF 4
ENDMDL
MODEL 8
REMARK VINA RESULT:      -5.5      1.896      3.053
REMARK  4 active torsions:
REMARK  status: ('A' for Active; 'I' for Inactive)
REMARK    1  A    between atoms: O1_2  and  C1_3 
REMARK    2  A    between atoms: C1_3  and  O2_4 
REMARK    3  A    between atoms: C1_3  and  C4_7 
REMARK    4  A    between atoms: O2_4  and  C2_5 
ROOT
HETATM    1  C4  UNL     1     -27.013  64.926  26.148  1.00  0.00     0.114 A 
HETATM    2  C5  UNL     1     -25.782  64.658  26.811  1.00  0.00     0.219 A 
HETATM    3  O3  UNL     1     -25.723  63.894  27.971  1.00  0.00    -0.169 OA
HETATM    4  N1  UNL     1     -24.616  65.151  26.319  1.00  0.00    -0.223 NA
HETATM    5  C6  UNL     1     -24.553  65.907  25.196  1.00  0.00     0.053 A 
HETATM    6  C7  UNL     1     -23.373  66.358  24.770  1.00  0.00     0.045 C 
HETATM    7  C8  UNL     1     -25.729  66.205  24.504  1.00  0.00     0.072 A 
HETATM    8  C9  UNL     1     -26.952  65.721  24.971  1.00  0.00     0.129 A 
HETATM    9  O4  UNL     1     -28.092  66.049  24.241  1.00  0.00    -0.191 OA
ENDROOT
BRANCH   1  10
HETATM   10  C1  UNL     1     -28.196  64.445  26.622  1.00  0.00     0.196 C 
BRANCH  10  11
HETATM   11  O1  UNL     1     -28.935  63.528  25.866  1.00  0.00    -0.340 OA
HETATM   12  H1  UNL     1     -29.817  63.751  25.427  1.00  0.00     0.220 HD
ENDBRANCH  10  11
BRANCH  10  13
HETATM   13  O2  UNL     1     -28.674  64.862  27.877  1.00  0.00    -0.330 OA
BRANCH  13  14
HETATM   14  C2  UNL     1     -29.045  63.998  28.949  1.00  0.00     0.173 C 
HETATM   15  C3  UNL     1     -30.105  64.651  29.829  1.00  0.00     0.034 C 
ENDBRANCH  13  14
ENDBRANCH  10  13
ENDBRANCH   1  10
TORSDOF 4
ENDMDL
MODEL 9
REMARK VINA RESULT:      -5.3      6.247      7.912
REMARK  4 active torsions:
REMARK  status: ('A' for Active; 'I' for Inactive)
REMARK    1  A    between atoms: O1_2  and  C1_3 
REMARK    2  A    between atoms: C1_3  and  O2_4 
REMARK    3  A    between atoms: C1_3  and  C4_7 
REMARK    4  A    between atoms: O2_4  and  C2_5 
ROOT
HETATM    1  C4  UNL     1     -20.528  62.424  24.400  1.00  0.00     0.114 A 
HETATM    2  C5  UNL     1     -21.780  62.709  23.784  1.00  0.00     0.219 A 
HETATM    3  O3  UNL     1     -21.981  62.544  22.418  1.00  0.00    -0.169 OA
HETATM    4  N1  UNL     1     -22.825  63.156  24.528  1.00  0.00    -0.223 NA
HETATM    5  C6  UNL     1     -22.743  63.354  25.867  1.00  0.00     0.053 A 
HETATM    6  C7  UNL     1     -23.809  63.795  26.534  1.00  0.00     0.045 C 
HETATM    7  C8  UNL     1     -21.540  63.093  26.525  1.00  0.00     0.072 A 
HETATM    8  C9  UNL     1     -20.437  62.632  25.804  1.00  0.00     0.129 A 
HETATM    9  O4  UNL     1     -19.263  62.390  26.512  1.00  0.00    -0.191 OA
ENDROOT
BRANCH   1  10
HETATM   10  C1  UNL     1     -19.464  61.976  23.676  1.00  0.00     0.196 C 
BRANCH  10  11
HETATM   11  O1  UNL     1     -19.481  60.690  23.127  1.00  0.00    -0.340 OA
HETATM   12  H1  UNL     1     -18.927  59.924  23.484  1.00  0.00     0.220 HD
ENDBRANCH  10  11
BRANCH  10  13
HETATM   13  O2  UNL     1     -18.350  62.809  23.473  1.00  0.00    -0.330 OA
BRANCH  13  14
HETATM   14  C2  UNL     1     -18.399  64.158  23.013  1.00  0.00     0.173 C 
HETATM   15  C3  UNL     1     -18.930  64.225  21.586  1.00  0.00     0.034 C 
ENDBRANCH  13  14
ENDBRANCH  10  13
ENDBRANCH   1  10
TORSDOF 4
ENDMDL
