MODEL 1
REMARK VINA RESULT:      -6.1      0.000      0.000
REMARK  2 active torsions:
REMARK  status: ('A' for Active; 'I' for Inactive)
REMARK    1  A    between atoms: C3_6  and  C4_7 
REMARK    2  A    between atoms: C4_7  and  N3_8 
ROOT
HETATM    1  O1  UNL     1     -27.800  66.557  22.164  1.00  0.00    -0.167 OA
HETATM    2  C1  UNL     1     -27.428  66.045  23.401  1.00  0.00     0.240 A 
HETATM    3  N1  UNL     1     -28.349  65.408  24.170  1.00  0.00    -0.213 NA
HETATM    4  C2  UNL     1     -28.013  64.899  25.383  1.00  0.00     0.236 A 
HETATM    5  N2  UNL     1     -26.742  65.023  25.845  1.00  0.00    -0.242 NA
HETATM    6  C3  UNL     1     -25.781  65.649  25.113  1.00  0.00     0.102 A 
HETATM    7  C10 UNL     1     -26.115  66.182  23.857  1.00  0.00     0.189 A 
HETATM    8  O2  UNL     1     -25.170  66.838  23.074  1.00  0.00    -0.185 OA
ENDROOT
BRANCH   6   9
HETATM    9  C4  UNL     1     -24.388  65.771  25.686  1.00  0.00     0.297 C 
BRANCH   9  10
HETATM   10  N3  UNL     1     -23.350  65.348  24.711  1.00  0.00    -0.066 N 
HETATM   11  C5  UNL     1     -22.042  65.990  24.985  1.00  0.00     0.235 C 
HETATM   12  C6  UNL     1     -21.350  65.419  26.234  1.00  0.00     0.028 C 
HETATM   13  C7  UNL     1     -21.190  63.904  26.115  1.00  0.00     0.003 C 
HETATM   14  C8  UNL     1     -22.536  63.239  25.829  1.00  0.00     0.028 C 
HETATM   15  C9  UNL     1     -23.211  63.873  24.601  1.00  0.00     0.235 C 
HETATM   16  H4  UNL     1     -23.649  65.696  23.768  1.00  0.00     0.280 HD
ENDBRANCH   9  10
ENDBRANCH   6   9
TORSDOF 2
ENDMDL
MODEL 2
REMARK VINA RESULT:      -5.9      1.716      1.990
REMARK  2 active torsions:
REMARK  status: ('A' for Active; 'I' for Inactive)
REMARK    1  A    between atoms: C3_6  and  C4_7 
REMARK    2  A    between atoms: C4_7  and  N3_8 
ROOT
HETATM    1  O1  UNL     1     -29.420  65.624  23.930  1.00  0.00    -0.167 OA
HETATM    2  C1  UNL     1     -28.079  65.947  23.764  1.00  0.00     0.240 A 
HETATM    3  N1  UNL     1     -27.671  66.562  22.624  1.00  0.00    -0.213 NA
HETATM    4  C2  UNL     1     -26.366  66.888  22.435  1.00  0.00     0.236 A 
HETATM    5  N2  UNL     1     -25.448  66.600  23.392  1.00  0.00    -0.242 NA
HETATM    6  C3  UNL     1     -25.804  65.986  24.554  1.00  0.00     0.102 A 
HETATM    7  C10 UNL     1     -27.151  65.642  24.761  1.00  0.00     0.189 A 
HETATM    8  O2  UNL     1     -27.564  65.008  25.929  1.00  0.00    -0.185 OA
ENDROOT
BRANCH   6   9
HETATM    9  C4  UNL     1     -24.735  65.676  25.575  1.00  0.00     0.297 C 
BRANCH   9  10
HETATM   10  N3  UNL     1     -23.427  65.382  24.936  1.00  0.00    -0.066 N 
HETATM   11  C5  UNL     1     -22.305  66.044  25.644  1.00  0.00     0.235 C 
HETATM   12  C6  UNL     1     -21.988  65.389  26.998  1.00  0.00     0.028 C 
HETATM   13  C7  UNL     1     -21.706  63.897  26.822  1.00  0.00     0.003 C 
HETATM   14  C8  UNL     1     -22.859  63.212  26.090  1.00  0.00     0.028 C 
HETATM   15  C9  UNL     1     -23.170  63.928  24.764  1.00  0.00     0.235 C 
HETATM   16  H4  UNL     1     -23.449  65.801  23.975  1.00  0.00     0.280 HD
ENDBRANCH   9  10
ENDBRANCH   6   9
TORSDOF 2
ENDMDL
MODEL 3
REMARK VINA RESULT:      -5.9      1.251      1.896
REMARK  2 active torsions:
REMARK  status: ('A' for Active; 'I' for Inactive)
REMARK    1  A    between atoms: C3_6  and  C4_7 
REMARK    2  A    between atoms: C4_7  and  N3_8 
ROOT
HETATM    1  O1  UNL     1     -28.054  66.620  22.754  1.00  0.00    -0.167 OA
HETATM    2  C1  UNL     1     -27.174  66.233  23.757  1.00  0.00     0.240 A 
HETATM    3  N1  UNL     1     -27.632  65.510  24.812  1.00  0.00    -0.213 NA
HETATM    4  C2  UNL     1     -26.794  65.120  25.807  1.00  0.00     0.236 A 
HETATM    5  N2  UNL     1     -25.479  65.453  25.758  1.00  0.00    -0.242 NA
HETATM    6  C3  UNL     1     -24.968  66.174  24.723  1.00  0.00     0.102 A 
HETATM    7  C10 UNL     1     -25.824  66.586  23.688  1.00  0.00     0.189 A 
HETATM    8  O2  UNL     1     -25.353  67.331  22.612  1.00  0.00    -0.185 OA
ENDROOT
BRANCH   6   9
HETATM    9  C4  UNL     1     -23.500  66.528  24.732  1.00  0.00     0.297 C 
BRANCH   9  10
HETATM   10  N3  UNL     1     -22.705  65.574  25.548  1.00  0.00    -0.066 N 
HETATM   11  C5  UNL     1     -21.677  64.877  24.738  1.00  0.00     0.235 C 
HETATM   12  C6  UNL     1     -20.505  65.793  24.350  1.00  0.00     0.028 C 
HETATM   13  C7  UNL     1     -19.875  66.418  25.594  1.00  0.00     0.003 C 
HETATM   14  C8  UNL     1     -20.932  67.134  26.434  1.00  0.00     0.028 C 
HETATM   15  C9  UNL     1     -22.105  66.193  26.758  1.00  0.00     0.235 C 
HETATM   16  H4  UNL     1     -23.362  64.828  25.882  1.00  0.00     0.280 HD
ENDBRANCH   9  10
ENDBRANCH   6   9
TORSDOF 2
ENDMDL
MODEL 4
REMARK VINA RESULT:      -5.7      3.229      5.985
REMARK  2 active torsions:
REMARK  status: ('A' for Active; 'I' for Inactive)
REMARK    1  A    between atoms: C3_6  and  C4_7 
REMARK    2  A    between atoms: C4_7  and  N3_8 
ROOT
HETATM    1  O1  UNL     1     -19.332  61.129  23.658  1.00  0.00    -0.167 OA
HETATM    2  C1  UNL     1     -20.048  61.952  24.518  1.00  0.00     0.240 A 
HETATM    3  N1  UNL     1     -19.553  62.229  25.752  1.00  0.00    -0.213 NA
HETATM    4  C2  UNL     1     -20.233  63.029  26.613  1.00  0.00     0.236 A 
HETATM    5  N2  UNL     1     -21.426  63.564  26.247  1.00  0.00    -0.242 NA
HETATM    6  C3  UNL     1     -21.966  63.320  25.022  1.00  0.00     0.102 A 
HETATM    7  C10 UNL     1     -21.273  62.492  24.121  1.00  0.00     0.189 A 
HETATM    8  O2  UNL     1     -21.786  62.207  22.860  1.00  0.00    -0.185 OA
ENDROOT
BRANCH   6   9
HETATM    9  C4  UNL     1     -23.304  63.930  24.677  1.00  0.00     0.297 C 
BRANCH   9  10
HETATM   10  N3  UNL     1     -23.571  65.161  25.465  1.00  0.00    -0.066 N 
HETATM   11  C5  UNL     1     -23.843  66.327  24.591  1.00  0.00     0.235 C 
HETATM   12  C6  UNL     1     -25.221  66.253  23.912  1.00  0.00     0.028 C 
HETATM   13  C7  UNL     1     -26.327  66.093  24.955  1.00  0.00     0.003 C 
HETATM   14  C8  UNL     1     -26.048  64.893  25.860  1.00  0.00     0.028 C 
HETATM   15  C9  UNL     1     -24.643  64.989  26.479  1.00  0.00     0.235 C 
HETATM   16  H4  UNL     1     -22.692  65.392  25.989  1.00  0.00     0.280 HD
ENDBRANCH   9  10
ENDBRANCH   6   9
TORSDOF 2
ENDMDL
MODEL 5
REMARK VINA RESULT:      -5.5      3.060      3.957
REMARK  2 active torsions:
REMARK  status: ('A' for Active; 'I' for Inactive)
REMARK    1  A    between atoms: C3_6  and  C4_7 
REMARK    2  A    between atoms: C4_7  and  N3_8 
ROOT
HETATM    1  O1  UNL     1     -27.070  67.502  23.223  1.00  0.00    -0.167 OA
HETATM    2  C1  UNL     1     -27.486  66.411  23.977  1.00  0.00     0.240 A 
HETATM    3  N1  UNL     1     -28.758  65.953  23.850  1.00  0.00    -0.213 NA
HETATM    4  C2  UNL     1     -29.192  64.890  24.576  1.00  0.00     0.236 A 
HETATM    5  N2  UNL     1     -28.352  64.271  25.444  1.00  0.00    -0.242 NA
HETATM    6  C3  UNL     1     -27.067  64.689  25.607  1.00  0.00     0.102 A 
HETATM    7  C10 UNL     1     -26.606  65.788  24.864  1.00  0.00     0.189 A 
HETATM    8  O2  UNL     1     -25.304  66.259  25.000  1.00  0.00    -0.185 OA
ENDROOT
BRANCH   6   9
HETATM    9  C4  UNL     1     -26.184  63.970  26.600  1.00  0.00     0.297 C 
BRANCH   9  10
HETATM   10  N3  UNL     1     -26.539  64.306  28.003  1.00  0.00    -0.066 N 
HETATM   11  C5  UNL     1     -27.712  63.533  28.476  1.00  0.00     0.235 C 
HETATM   12  C6  UNL     1     -27.385  62.052  28.729  1.00  0.00     0.028 C 
HETATM   13  C7  UNL     1     -26.222  61.919  29.712  1.00  0.00     0.003 C 
HETATM   14  C8  UNL     1     -25.012  62.718  29.230  1.00  0.00     0.028 C 
HETATM   15  C9  UNL     1     -25.398  64.180  28.945  1.00  0.00     0.235 C 
HETATM   16  H4  UNL     1     -26.834  65.313  28.016  1.00  0.00     0.280 HD
ENDBRANCH   9  10
ENDBRANCH   6   9
TORSDOF 2
ENDMDL
MODEL 6
REMARK VINA RESULT:      -5.4      3.284      5.942
REMARK  2 active torsions:
REMARK  status: ('A' for Active; 'I' for Inactive)
REMARK    1  A    between atoms: C3_6  and  C4_7 
REMARK    2  A    between atoms: C4_7  and  N3_8 
ROOT
HETATM    1  O1  UNL     1     -18.781  69.046  25.553  1.00  0.00    -0.167 OA
HETATM    2  C1  UNL     1     -19.502  67.915  25.189  1.00  0.00     0.240 A 
HETATM    3  N1  UNL     1     -18.983  67.050  24.280  1.00  0.00    -0.213 NA
HETATM    4  C2  UNL     1     -19.667  65.938  23.905  1.00  0.00     0.236 A 
HETATM    5  N2  UNL     1     -20.887  65.677  24.441  1.00  0.00    -0.242 NA
HETATM    6  C3  UNL     1     -21.451  66.510  25.357  1.00  0.00     0.102 A 
HETATM    7  C10 UNL     1     -20.755  67.665  25.752  1.00  0.00     0.189 A 
HETATM    8  O2  UNL     1     -21.293  68.552  26.680  1.00  0.00    -0.185 OA
ENDROOT
BRANCH   6   9
HETATM    9  C4  UNL     1     -22.819  66.176  25.905  1.00  0.00     0.297 C 
BRANCH   9  10
HETATM   10  N3  UNL     1     -23.470  65.082  25.140  1.00  0.00    -0.066 N 
HETATM   11  C5  UNL     1     -23.826  63.936  26.010  1.00  0.00     0.235 C 
HETATM   12  C6  UNL     1     -25.020  64.238  26.932  1.00  0.00     0.028 C 
HETATM   13  C7  UNL     1     -26.230  64.688  26.114  1.00  0.00     0.003 C 
HETATM   14  C8  UNL     1     -25.866  65.867  25.213  1.00  0.00     0.028 C 
HETATM   15  C9  UNL     1     -24.640  65.535  24.344  1.00  0.00     0.235 C 
HETATM   16  H4  UNL     1     -22.763  64.716  24.457  1.00  0.00     0.280 HD
ENDBRANCH   9  10
ENDBRANCH   6   9
TORSDOF 2
ENDMDL
MODEL 7
REMARK VINA RESULT:      -5.3      3.359      6.109
REMARK  2 active torsions:
REMARK  status: ('A' for Active; 'I' for Inactive)
REMARK    1  A    between atoms: C3_6  and  C4_7 
REMARK    2  A    between atoms: C4_7  and  N3_8 
ROOT
HETATM    1  O1  UNL     1     -17.705  67.178  23.293  1.00  0.00    -0.167 OA
HETATM    2  C1  UNL     1     -18.663  66.189  23.480  1.00  0.00     0.240 A 
HETATM    3  N1  UNL     1     -18.445  64.941  22.992  1.00  0.00    -0.213 NA
HETATM    4  C2  UNL     1     -19.365  63.956  23.159  1.00  0.00     0.236 A 
HETATM    5  N2  UNL     1     -20.523  64.212  23.821  1.00  0.00    -0.242 NA
HETATM    6  C3  UNL     1     -20.790  65.445  24.331  1.00  0.00     0.102 A 
HETATM    7  C10 UNL     1     -19.847  66.474  24.164  1.00  0.00     0.189 A 
HETATM    8  O2  UNL     1     -20.076  67.753  24.661  1.00  0.00    -0.185 OA
ENDROOT
BRANCH   6   9
HETATM    9  C4  UNL     1     -22.102  65.674  25.044  1.00  0.00     0.297 C 
BRANCH   9  10
HETATM   10  N3  UNL     1     -23.109  64.638  24.697  1.00  0.00    -0.066 N 
HETATM   11  C5  UNL     1     -23.382  63.730  25.836  1.00  0.00     0.235 C 
HETATM   12  C6  UNL     1     -24.202  64.403  26.950  1.00  0.00     0.028 C 
HETATM   13  C7  UNL     1     -25.506  64.969  26.389  1.00  0.00     0.003 C 
HETATM   14  C8  UNL     1     -25.229  65.903  25.212  1.00  0.00     0.028 C 
HETATM   15  C9  UNL     1     -24.368  65.202  24.147  1.00  0.00     0.235 C 
HETATM   16  H4  UNL     1     -22.691  64.038  23.944  1.00  0.00     0.280 HD
ENDBRANCH   9  10
ENDBRANCH   6   9
TORSDOF 2
ENDMDL
