MODEL 1
REMARK VINA RESULT:      -7.7      0.000      0.000
REMARK  11 active torsions:
REMARK  status: ('A' for Active; 'I' for Inactive)
REMARK    1  A    between atoms: C2_2  and  O2_4 
REMARK    2  A    between atoms: O2_4  and  C3_5 
REMARK    3  A    between atoms: C3_5  and  C4_6 
REMARK    4  A    between atoms: C5_8  and  C6_9 
REMARK    5  A    between atoms: C5_8  and  C9_14 
REMARK    6  A    between atoms: C6_9  and  O4_10 
REMARK    7  A    between atoms: O4_10  and  C7_11 
REMARK    8  A    between atoms: C16_21  and  O6_22 
REMARK    9  A    between atoms: O6_22  and  C17_23 
REMARK   10  A    between atoms: C19_26  and  O8_27 
REMARK   11  A    between atoms: O8_27  and  C20_28 
ROOT
HETATM    1  C4  UNL     1     -21.069  66.949  26.651  1.00  0.00     0.179 C 
HETATM    2  O3  UNL     1     -22.278  66.406  27.132  1.00  0.00    -0.360 OA
HETATM    3  C5  UNL     1     -22.634  65.299  26.318  1.00  0.00     0.139 C 
HETATM    4  C16 UNL     1     -21.581  65.186  25.188  1.00  0.00     0.205 C 
HETATM    5  C19 UNL     1     -20.403  65.929  25.742  1.00  0.00     0.196 C 
ENDROOT
BRANCH   3   6
HETATM    6  C6  UNL     1     -22.665  64.055  27.238  1.00  0.00     0.224 C 
BRANCH   6   7
HETATM    7  O4  UNL     1     -21.786  64.235  28.345  1.00  0.00    -0.318 OA
BRANCH   7   8
HETATM    8  C7  UNL     1     -20.832  63.289  28.720  1.00  0.00     0.254 C 
HETATM    9  C8  UNL     1     -20.867  62.721  30.098  1.00  0.00     0.126 C 
HETATM   10  O5  UNL     1     -19.918  62.942  27.922  1.00  0.00    -0.266 OA
ENDBRANCH   7   8
ENDBRANCH   6   7
ENDBRANCH   3   6
BRANCH   3  11
HETATM   11  C9  UNL     1     -24.026  65.510  25.719  1.00  0.00    -0.019 A 
HETATM   12  C10 UNL     1     -24.182  66.277  24.547  1.00  0.00     0.011 A 
HETATM   13  C11 UNL     1     -25.447  66.486  23.992  1.00  0.00     0.007 A 
HETATM   14  C12 UNL     1     -26.583  65.929  24.591  1.00  0.00    -0.062 A 
HETATM   15  C13 UNL     1     -27.938  66.181  23.998  1.00  0.00     0.048 C 
HETATM   16  C14 UNL     1     -26.444  65.173  25.763  1.00  0.00     0.007 A 
HETATM   17  C15 UNL     1     -25.179  64.963  26.320  1.00  0.00     0.011 A 
ENDBRANCH   3  11
BRANCH   4  18
HETATM   18  O6  UNL     1     -21.224  63.831  24.895  1.00  0.00    -0.310 OA
BRANCH  18  19
HETATM   19  C17 UNL     1     -21.439  63.212  23.659  1.00  0.00     0.255 C 
HETATM   20  C18 UNL     1     -20.298  63.051  22.715  1.00  0.00     0.126 C 
HETATM   21  O7  UNL     1     -22.589  62.825  23.316  1.00  0.00    -0.266 OA
ENDBRANCH  18  19
ENDBRANCH   4  18
BRANCH   1  22
HETATM   22  C3  UNL     1     -20.172  67.340  27.829  1.00  0.00     0.213 C 
BRANCH  22  23
HETATM   23  O2  UNL     1     -19.765  68.698  27.694  1.00  0.00    -0.319 OA
BRANCH  23  24
HETATM   24  C2  UNL     1     -18.633  69.079  26.970  1.00  0.00     0.254 C 
HETATM   25  C1  UNL     1     -17.279  68.731  27.486  1.00  0.00     0.126 C 
HETATM   26  O1  UNL     1     -18.745  69.715  25.886  1.00  0.00    -0.266 OA
ENDBRANCH  23  24
ENDBRANCH  22  23
ENDBRANCH   1  22
BRANCH   5  27
HETATM   27  O8  UNL     1     -19.672  66.577  24.698  1.00  0.00    -0.311 OA
BRANCH  27  28
HETATM   28  C20 UNL     1     -18.306  66.381  24.463  1.00  0.00     0.255 C 
HETATM   29  C21 UNL     1     -17.591  65.289  25.180  1.00  0.00     0.126 C 
HETATM   30  O9  UNL     1     -17.666  67.136  23.680  1.00  0.00    -0.266 OA
ENDBRANCH  27  28
ENDBRANCH   5  27
TORSDOF 11
ENDMDL
MODEL 2
REMARK VINA RESULT:      -7.6      1.766      4.662
REMARK  11 active torsions:
REMARK  status: ('A' for Active; 'I' for Inactive)
REMARK    1  A    between atoms: C2_2  and  O2_4 
REMARK    2  A    between atoms: O2_4  and  C3_5 
REMARK    3  A    between atoms: C3_5  and  C4_6 
REMARK    4  A    between atoms: C5_8  and  C6_9 
REMARK    5  A    between atoms: C5_8  and  C9_14 
REMARK    6  A    between atoms: C6_9  and  O4_10 
REMARK    7  A    between atoms: O4_10  and  C7_11 
REMARK    8  A    between atoms: C16_21  and  O6_22 
REMARK    9  A    between atoms: O6_22  and  C17_23 
REMARK   10  A    between atoms: C19_26  and  O8_27 
REMARK   11  A    between atoms: O8_27  and  C20_28 
ROOT
HETATM    1  C4  UNL     1     -20.169  65.355  24.003  1.00  0.00     0.179 C 
HETATM    2  O3  UNL     1     -21.136  66.323  24.343  1.00  0.00    -0.360 OA
HETATM    3  C5  UNL     1     -21.647  66.020  25.632  1.00  0.00     0.139 C 
HETATM    4  C16 UNL     1     -20.981  64.705  26.108  1.00  0.00     0.205 C 
HETATM    5  C19 UNL     1     -19.743  64.625  25.266  1.00  0.00     0.196 C 
ENDROOT
BRANCH   3   6
HETATM    6  C6  UNL     1     -21.314  67.226  26.544  1.00  0.00     0.224 C 
BRANCH   6   7
HETATM    7  O4  UNL     1     -20.667  68.250  25.794  1.00  0.00    -0.318 OA
BRANCH   7   8
HETATM    8  C7  UNL     1     -19.364  68.676  26.057  1.00  0.00     0.254 C 
HETATM    9  C8  UNL     1     -18.429  67.769  26.781  1.00  0.00     0.126 C 
HETATM   10  O5  UNL     1     -18.986  69.834  25.727  1.00  0.00    -0.266 OA
ENDBRANCH   7   8
ENDBRANCH   6   7
ENDBRANCH   3   6
BRANCH   3  11
HETATM   11  C9  UNL     1     -23.166  65.847  25.572  1.00  0.00    -0.019 A 
HETATM   12  C10 UNL     1     -23.824  65.040  26.523  1.00  0.00     0.011 A 
HETATM   13  C11 UNL     1     -25.209  64.864  26.476  1.00  0.00     0.007 A 
HETATM   14  C12 UNL     1     -25.969  65.495  25.485  1.00  0.00    -0.062 A 
HETATM   15  C13 UNL     1     -27.453  65.279  25.432  1.00  0.00     0.048 C 
HETATM   16  C14 UNL     1     -25.327  66.291  24.527  1.00  0.00     0.007 A 
HETATM   17  C15 UNL     1     -23.941  66.468  24.570  1.00  0.00     0.011 A 
ENDBRANCH   3  11
BRANCH   4  18
HETATM   18  O6  UNL     1     -20.640  64.725  27.498  1.00  0.00    -0.310 OA
BRANCH  18  19
HETATM   19  C17 UNL     1     -20.609  63.591  28.315  1.00  0.00     0.255 C 
HETATM   20  C18 UNL     1     -21.803  63.251  29.138  1.00  0.00     0.126 C 
HETATM   21  O7  UNL     1     -19.574  62.875  28.395  1.00  0.00    -0.266 OA
ENDBRANCH  18  19
ENDBRANCH   4  18
BRANCH   1  22
HETATM   22  C3  UNL     1     -18.986  66.030  23.303  1.00  0.00     0.213 C 
BRANCH  22  23
HETATM   23  O2  UNL     1     -18.761  65.417  22.038  1.00  0.00    -0.319 OA
BRANCH  23  24
HETATM   24  C2  UNL     1     -17.634  64.639  21.764  1.00  0.00     0.254 C 
HETATM   25  C1  UNL     1     -17.024  64.683  20.405  1.00  0.00     0.126 C 
HETATM   26  O1  UNL     1     -17.127  63.902  22.653  1.00  0.00    -0.266 OA
ENDBRANCH  23  24
ENDBRANCH  22  23
ENDBRANCH   1  22
BRANCH   5  27
HETATM   27  O8  UNL     1     -19.408  63.265  24.980  1.00  0.00    -0.311 OA
BRANCH  27  28
HETATM   28  C20 UNL     1     -20.226  62.397  24.246  1.00  0.00     0.255 C 
HETATM   29  C21 UNL     1     -21.401  61.766  24.909  1.00  0.00     0.126 C 
HETATM   30  O9  UNL     1     -19.964  62.118  23.044  1.00  0.00    -0.266 OA
ENDBRANCH  27  28
ENDBRANCH   5  27
TORSDOF 11
ENDMDL
MODEL 3
REMARK VINA RESULT:      -7.4      1.806      2.282
REMARK  11 active torsions:
REMARK  status: ('A' for Active; 'I' for Inactive)
REMARK    1  A    between atoms: C2_2  and  O2_4 
REMARK    2  A    between atoms: O2_4  and  C3_5 
REMARK    3  A    between atoms: C3_5  and  C4_6 
REMARK    4  A    between atoms: C5_8  and  C6_9 
REMARK    5  A    between atoms: C5_8  and  C9_14 
REMARK    6  A    between atoms: C6_9  and  O4_10 
REMARK    7  A    between atoms: O4_10  and  C7_11 
REMARK    8  A    between atoms: C16_21  and  O6_22 
REMARK    9  A    between atoms: O6_22  and  C17_23 
REMARK   10  A    between atoms: C19_26  and  O8_27 
REMARK   11  A    between atoms: O8_27  and  C20_28 
ROOT
HETATM    1  C4  UNL     1     -21.132  66.344  24.493  1.00  0.00     0.179 C 
HETATM    2  O3  UNL     1     -22.172  66.657  25.393  1.00  0.00    -0.360 OA
HETATM    3  C5  UNL     1     -22.865  65.462  25.718  1.00  0.00     0.139 C 
HETATM    4  C16 UNL     1     -22.238  64.311  24.892  1.00  0.00     0.205 C 
HETATM    5  C19 UNL     1     -20.882  64.845  24.537  1.00  0.00     0.196 C 
ENDROOT
BRANCH   3   6
HETATM    6  C6  UNL     1     -22.718  65.256  27.245  1.00  0.00     0.224 C 
BRANCH   6   7
HETATM    7  O4  UNL     1     -21.694  66.102  27.761  1.00  0.00    -0.318 OA
BRANCH   7   8
HETATM    8  C7  UNL     1     -21.269  66.057  29.090  1.00  0.00     0.254 C 
HETATM    9  C8  UNL     1     -21.909  66.954  30.093  1.00  0.00     0.126 C 
HETATM   10  O5  UNL     1     -20.323  65.298  29.440  1.00  0.00    -0.266 OA
ENDBRANCH   7   8
ENDBRANCH   6   7
ENDBRANCH   3   6
BRANCH   3  11
HETATM   11  C9  UNL     1     -24.350  65.604  25.377  1.00  0.00    -0.019 A 
HETATM   12  C10 UNL     1     -24.750  66.384  24.273  1.00  0.00     0.011 A 
HETATM   13  C11 UNL     1     -26.102  66.532  23.954  1.00  0.00     0.007 A 
HETATM   14  C12 UNL     1     -27.085  65.898  24.723  1.00  0.00    -0.062 A 
HETATM   15  C13 UNL     1     -28.534  66.083  24.383  1.00  0.00     0.048 C 
HETATM   16  C14 UNL     1     -26.702  65.127  25.830  1.00  0.00     0.007 A 
HETATM   17  C15 UNL     1     -25.349  64.979  26.152  1.00  0.00     0.011 A 
ENDBRANCH   3  11
BRANCH   4  18
HETATM   18  O6  UNL     1     -22.117  63.095  25.637  1.00  0.00    -0.310 OA
BRANCH  18  19
HETATM   19  C17 UNL     1     -20.905  62.441  25.880  1.00  0.00     0.255 C 
HETATM   20  C18 UNL     1     -20.458  61.364  24.953  1.00  0.00     0.126 C 
HETATM   21  O7  UNL     1     -20.206  62.722  26.891  1.00  0.00    -0.266 OA
ENDBRANCH  18  19
ENDBRANCH   4  18
BRANCH   1  22
HETATM   22  C3  UNL     1     -19.878  67.145  24.853  1.00  0.00     0.213 C 
BRANCH  22  23
HETATM   23  O2  UNL     1     -20.236  68.490  25.155  1.00  0.00    -0.319 OA
BRANCH  23  24
HETATM   24  C2  UNL     1     -19.554  69.260  26.100  1.00  0.00     0.254 C 
HETATM   25  C1  UNL     1     -19.953  69.185  27.534  1.00  0.00     0.126 C 
HETATM   26  O1  UNL     1     -18.607  70.018  25.753  1.00  0.00    -0.266 OA
ENDBRANCH  23  24
ENDBRANCH  22  23
ENDBRANCH   1  22
BRANCH   5  27
HETATM   27  O8  UNL     1     -20.463  64.360  23.259  1.00  0.00    -0.311 OA
BRANCH  27  28
HETATM   28  C20 UNL     1     -19.123  64.221  22.878  1.00  0.00     0.255 C 
HETATM   29  C21 UNL     1     -18.733  64.500  21.468  1.00  0.00     0.126 C 
HETATM   30  O9  UNL     1     -18.251  63.831  23.701  1.00  0.00    -0.266 OA
ENDBRANCH  27  28
ENDBRANCH   5  27
TORSDOF 11
ENDMDL
MODEL 4
REMARK VINA RESULT:      -7.2      2.075      4.410
REMARK  11 active torsions:
REMARK  status: ('A' for Active; 'I' for Inactive)
REMARK    1  A    between atoms: C2_2  and  O2_4 
REMARK    2  A    between atoms: O2_4  and  C3_5 
REMARK    3  A    between atoms: C3_5  and  C4_6 
REMARK    4  A    between atoms: C5_8  and  C6_9 
REMARK    5  A    between atoms: C5_8  and  C9_14 
REMARK    6  A    between atoms: C6_9  and  O4_10 
REMARK    7  A    between atoms: O4_10  and  C7_11 
REMARK    8  A    between atoms: C16_21  and  O6_22 
REMARK    9  A    between atoms: O6_22  and  C17_23 
REMARK   10  A    between atoms: C19_26  and  O8_27 
REMARK   11  A    between atoms: O8_27  and  C20_28 
ROOT
HETATM    1  C4  UNL     1     -21.202  65.544  25.893  1.00  0.00     0.179 C 
HETATM    2  O3  UNL     1     -21.717  64.232  25.876  1.00  0.00    -0.360 OA
HETATM    3  C5  UNL     1     -23.026  64.266  25.327  1.00  0.00     0.139 C 
HETATM    4  C16 UNL     1     -23.379  65.745  25.037  1.00  0.00     0.205 C 
HETATM    5  C19 UNL     1     -22.036  66.409  24.962  1.00  0.00     0.196 C 
ENDROOT
BRANCH   3   6
HETATM    6  C6  UNL     1     -23.002  63.391  24.050  1.00  0.00     0.224 C 
BRANCH   6   7
HETATM    7  O4  UNL     1     -21.952  62.432  24.127  1.00  0.00    -0.318 OA
BRANCH   7   8
HETATM    8  C7  UNL     1     -20.926  62.352  23.184  1.00  0.00     0.254 C 
HETATM    9  C8  UNL     1     -19.545  62.012  23.632  1.00  0.00     0.126 C 
HETATM   10  O5  UNL     1     -21.145  62.606  21.968  1.00  0.00    -0.266 OA
ENDBRANCH   7   8
ENDBRANCH   6   7
ENDBRANCH   3   6
BRANCH   3  11
HETATM   11  C9  UNL     1     -24.030  63.671  26.318  1.00  0.00    -0.019 A 
HETATM   12  C10 UNL     1     -25.326  64.215  26.422  1.00  0.00     0.011 A 
HETATM   13  C11 UNL     1     -26.251  63.690  27.328  1.00  0.00     0.007 A 
HETATM   14  C12 UNL     1     -25.907  62.607  28.144  1.00  0.00    -0.062 A 
HETATM   15  C13 UNL     1     -26.902  62.067  29.128  1.00  0.00     0.048 C 
HETATM   16  C14 UNL     1     -24.618  62.063  28.058  1.00  0.00     0.007 A 
HETATM   17  C15 UNL     1     -23.689  62.587  27.153  1.00  0.00     0.011 A 
ENDBRANCH   3  11
BRANCH   4  18
HETATM   18  O6  UNL     1     -24.091  65.916  23.807  1.00  0.00    -0.310 OA
BRANCH  18  19
HETATM   19  C17 UNL     1     -25.248  66.690  23.670  1.00  0.00     0.255 C 
HETATM   20  C18 UNL     1     -26.571  66.088  23.995  1.00  0.00     0.126 C 
HETATM   21  O7  UNL     1     -25.192  67.874  23.241  1.00  0.00    -0.266 OA
ENDBRANCH  18  19
ENDBRANCH   4  18
BRANCH   1  22
HETATM   22  C3  UNL     1     -19.726  65.524  25.487  1.00  0.00     0.213 C 
BRANCH  22  23
HETATM   23  O2  UNL     1     -19.616  65.573  24.068  1.00  0.00    -0.319 OA
BRANCH  23  24
HETATM   24  C2  UNL     1     -18.387  65.607  23.405  1.00  0.00     0.254 C 
HETATM   25  C1  UNL     1     -17.186  66.137  24.111  1.00  0.00     0.126 C 
HETATM   26  O1  UNL     1     -18.283  65.196  22.217  1.00  0.00    -0.266 OA
ENDBRANCH  23  24
ENDBRANCH  22  23
ENDBRANCH   1  22
BRANCH   5  27
HETATM   27  O8  UNL     1     -22.105  67.754  25.442  1.00  0.00    -0.311 OA
BRANCH  27  28
HETATM   28  C20 UNL     1     -21.009  68.456  25.957  1.00  0.00     0.255 C 
HETATM   29  C21 UNL     1     -20.951  68.750  27.417  1.00  0.00     0.126 C 
HETATM   30  O9  UNL     1     -20.090  68.872  25.201  1.00  0.00    -0.266 OA
ENDBRANCH  27  28
ENDBRANCH   5  27
TORSDOF 11
ENDMDL
MODEL 5
REMARK VINA RESULT:      -7.1      2.238      4.003
REMARK  11 active torsions:
REMARK  status: ('A' for Active; 'I' for Inactive)
REMARK    1  A    between atoms: C2_2  and  O2_4 
REMARK    2  A    between atoms: O2_4  and  C3_5 
REMARK    3  A    between atoms: C3_5  and  C4_6 
REMARK    4  A    between atoms: C5_8  and  C6_9 
REMARK    5  A    between atoms: C5_8  and  C9_14 
REMARK    6  A    between atoms: C6_9  and  O4_10 
REMARK    7  A    between atoms: O4_10  and  C7_11 
REMARK    8  A    between atoms: C16_21  and  O6_22 
REMARK    9  A    between atoms: O6_22  and  C17_23 
REMARK   10  A    between atoms: C19_26  and  O8_27 
REMARK   11  A    between atoms: O8_27  and  C20_28 
ROOT
HETATM    1  C4  UNL     1     -22.496  65.111  28.276  1.00  0.00     0.179 C 
HETATM    2  O3  UNL     1     -23.855  64.735  28.268  1.00  0.00    -0.360 OA
HETATM    3  C5  UNL     1     -24.115  64.004  27.080  1.00  0.00     0.139 C 
HETATM    4  C16 UNL     1     -22.813  63.980  26.243  1.00  0.00     0.205 C 
HETATM    5  C19 UNL     1     -21.748  64.262  27.261  1.00  0.00     0.196 C 
ENDROOT
BRANCH   3   6
HETATM    6  C6  UNL     1     -24.579  62.592  27.512  1.00  0.00     0.224 C 
BRANCH   6   7
HETATM    7  O4  UNL     1     -24.764  62.542  28.923  1.00  0.00    -0.318 OA
BRANCH   7   8
HETATM    8  C7  UNL     1     -26.007  62.326  29.520  1.00  0.00     0.254 C 
HETATM    9  C8  UNL     1     -26.528  63.315  30.505  1.00  0.00     0.126 C 
HETATM   10  O5  UNL     1     -26.671  61.283  29.267  1.00  0.00    -0.266 OA
ENDBRANCH   7   8
ENDBRANCH   6   7
ENDBRANCH   3   6
BRANCH   3  11
HETATM   11  C9  UNL     1     -25.238  64.673  26.284  1.00  0.00    -0.019 A 
HETATM   12  C10 UNL     1     -26.585  64.403  26.598  1.00  0.00     0.011 A 
HETATM   13  C11 UNL     1     -27.622  64.998  25.876  1.00  0.00     0.007 A 
HETATM   14  C12 UNL     1     -27.338  65.882  24.828  1.00  0.00    -0.062 A 
HETATM   15  C13 UNL     1     -28.460  66.496  24.045  1.00  0.00     0.048 C 
HETATM   16  C14 UNL     1     -26.003  66.150  24.497  1.00  0.00     0.007 A 
HETATM   17  C15 UNL     1     -24.963  65.555  25.218  1.00  0.00     0.011 A 
ENDBRANCH   3  11
BRANCH   4  18
HETATM   18  O6  UNL     1     -22.579  62.717  25.613  1.00  0.00    -0.310 OA
BRANCH  18  19
HETATM   19  C17 UNL     1     -21.957  62.562  24.370  1.00  0.00     0.255 C 
HETATM   20  C18 UNL     1     -20.543  62.097  24.314  1.00  0.00     0.126 C 
HETATM   21  O7  UNL     1     -22.561  62.847  23.300  1.00  0.00    -0.266 OA
ENDBRANCH  18  19
ENDBRANCH   4  18
BRANCH   1  22
HETATM   22  C3  UNL     1     -21.924  64.951  29.688  1.00  0.00     0.213 C 
BRANCH  22  23
HETATM   23  O2  UNL     1     -21.859  63.569  30.027  1.00  0.00    -0.319 OA
BRANCH  23  24
HETATM   24  C2  UNL     1     -20.733  62.987  30.614  1.00  0.00     0.254 C 
HETATM   25  C1  UNL     1     -19.461  62.907  29.842  1.00  0.00     0.126 C 
HETATM   26  O1  UNL     1     -20.781  62.528  31.788  1.00  0.00    -0.266 OA
ENDBRANCH  23  24
ENDBRANCH  22  23
ENDBRANCH   1  22
BRANCH   5  27
HETATM   27  O8  UNL     1     -20.669  64.998  26.678  1.00  0.00    -0.311 OA
BRANCH  27  28
HETATM   28  C20 UNL     1     -20.838  66.014  25.730  1.00  0.00     0.255 C 
HETATM   29  C21 UNL     1     -20.274  65.838  24.363  1.00  0.00     0.126 C 
HETATM   30  O9  UNL     1     -21.431  67.087  26.026  1.00  0.00    -0.266 OA
ENDBRANCH  27  28
ENDBRANCH   5  27
TORSDOF 11
ENDMDL
MODEL 6
REMARK VINA RESULT:      -7.1      2.509      3.741
REMARK  11 active torsions:
REMARK  status: ('A' for Active; 'I' for Inactive)
REMARK    1  A    between atoms: C2_2  and  O2_4 
REMARK    2  A    between atoms: O2_4  and  C3_5 
REMARK    3  A    between atoms: C3_5  and  C4_6 
REMARK    4  A    between atoms: C5_8  and  C6_9 
REMARK    5  A    between atoms: C5_8  and  C9_14 
REMARK    6  A    between atoms: C6_9  and  O4_10 
REMARK    7  A    between atoms: O4_10  and  C7_11 
REMARK    8  A    between atoms: C16_21  and  O6_22 
REMARK    9  A    between atoms: O6_22  and  C17_23 
REMARK   10  A    between atoms: C19_26  and  O8_27 
REMARK   11  A    between atoms: O8_27  and  C20_28 
ROOT
HETATM    1  C4  UNL     1     -22.601  65.358  28.416  1.00  0.00     0.179 C 
HETATM    2  O3  UNL     1     -23.899  64.817  28.305  1.00  0.00    -0.360 OA
HETATM    3  C5  UNL     1     -24.019  64.183  27.042  1.00  0.00     0.139 C 
HETATM    4  C16 UNL     1     -22.695  64.406  26.271  1.00  0.00     0.205 C 
HETATM    5  C19 UNL     1     -21.713  64.716  27.362  1.00  0.00     0.196 C 
ENDROOT
BRANCH   3   6
HETATM    6  C6  UNL     1     -24.312  62.687  27.314  1.00  0.00     0.224 C 
BRANCH   6   7
HETATM    7  O4  UNL     1     -24.507  62.468  28.709  1.00  0.00    -0.318 OA
BRANCH   7   8
HETATM    8  C7  UNL     1     -25.740  62.108  29.256  1.00  0.00     0.254 C 
HETATM    9  C8  UNL     1     -26.364  62.981  30.290  1.00  0.00     0.126 C 
HETATM   10  O5  UNL     1     -26.308  61.034  28.917  1.00  0.00    -0.266 OA
ENDBRANCH   7   8
ENDBRANCH   6   7
ENDBRANCH   3   6
BRANCH   3  11
HETATM   11  C9  UNL     1     -25.189  64.783  26.259  1.00  0.00    -0.019 A 
HETATM   12  C10 UNL     1     -26.515  64.455  26.608  1.00  0.00     0.011 A 
HETATM   13  C11 UNL     1     -27.594  64.986  25.898  1.00  0.00     0.007 A 
HETATM   14  C12 UNL     1     -27.375  65.862  24.828  1.00  0.00    -0.062 A 
HETATM   15  C13 UNL     1     -28.542  66.408  24.059  1.00  0.00     0.048 C 
HETATM   16  C14 UNL     1     -26.062  66.188  24.463  1.00  0.00     0.007 A 
HETATM   17  C15 UNL     1     -24.980  65.656  25.172  1.00  0.00     0.011 A 
ENDBRANCH   3  11
BRANCH   4  18
HETATM   18  O6  UNL     1     -22.277  63.251  25.536  1.00  0.00    -0.310 OA
BRANCH  18  19
HETATM   19  C17 UNL     1     -21.886  63.274  24.194  1.00  0.00     0.255 C 
HETATM   20  C18 UNL     1     -20.574  63.877  23.826  1.00  0.00     0.126 C 
HETATM   21  O7  UNL     1     -22.641  62.828  23.288  1.00  0.00    -0.266 OA
ENDBRANCH  18  19
ENDBRANCH   4  18
BRANCH   1  22
HETATM   22  C3  UNL     1     -22.065  65.130  29.832  1.00  0.00     0.213 C 
BRANCH  22  23
HETATM   23  O2  UNL     1     -21.716  66.379  30.421  1.00  0.00    -0.319 OA
BRANCH  23  24
HETATM   24  C2  UNL     1     -22.634  67.173  31.112  1.00  0.00     0.254 C 
HETATM   25  C1  UNL     1     -23.744  66.524  31.867  1.00  0.00     0.126 C 
HETATM   26  O1  UNL     1     -22.536  68.430  31.103  1.00  0.00    -0.266 OA
ENDBRANCH  23  24
ENDBRANCH  22  23
ENDBRANCH   1  22
BRANCH   5  27
HETATM   27  O8  UNL     1     -20.718  65.635  26.906  1.00  0.00    -0.311 OA
BRANCH  27  28
HETATM   28  C20 UNL     1     -20.932  67.012  26.764  1.00  0.00     0.255 C 
HETATM   29  C21 UNL     1     -21.608  67.523  25.539  1.00  0.00     0.126 C 
HETATM   30  O9  UNL     1     -20.533  67.825  27.641  1.00  0.00    -0.266 OA
ENDBRANCH  27  28
ENDBRANCH   5  27
TORSDOF 11
ENDMDL
MODEL 7
REMARK VINA RESULT:      -7.1      1.591      4.953
REMARK  11 active torsions:
REMARK  status: ('A' for Active; 'I' for Inactive)
REMARK    1  A    between atoms: C2_2  and  O2_4 
REMARK    2  A    between atoms: O2_4  and  C3_5 
REMARK    3  A    between atoms: C3_5  and  C4_6 
REMARK    4  A    between atoms: C5_8  and  C6_9 
REMARK    5  A    between atoms: C5_8  and  C9_14 
REMARK    6  A    between atoms: C6_9  and  O4_10 
REMARK    7  A    between atoms: O4_10  and  C7_11 
REMARK    8  A    between atoms: C16_21  and  O6_22 
REMARK    9  A    between atoms: O6_22  and  C17_23 
REMARK   10  A    between atoms: C19_26  and  O8_27 
REMARK   11  A    between atoms: O8_27  and  C20_28 
ROOT
HETATM    1  C4  UNL     1     -20.779  64.580  24.853  1.00  0.00     0.179 C 
HETATM    2  O3  UNL     1     -21.637  65.598  24.386  1.00  0.00    -0.360 OA
HETATM    3  C5  UNL     1     -22.346  66.135  25.492  1.00  0.00     0.139 C 
HETATM    4  C16 UNL     1     -21.938  65.333  26.752  1.00  0.00     0.205 C 
HETATM    5  C19 UNL     1     -20.625  64.724  26.359  1.00  0.00     0.196 C 
ENDROOT
BRANCH   3   6
HETATM    6  C6  UNL     1     -21.968  67.634  25.584  1.00  0.00     0.224 C 
BRANCH   6   7
HETATM    7  O4  UNL     1     -20.750  67.880  24.887  1.00  0.00    -0.318 OA
BRANCH   7   8
HETATM    8  C7  UNL     1     -19.600  68.363  25.514  1.00  0.00     0.254 C 
HETATM    9  C8  UNL     1     -19.711  69.497  26.474  1.00  0.00     0.126 C 
HETATM   10  O5  UNL     1     -18.466  67.879  25.244  1.00  0.00    -0.266 OA
ENDBRANCH   7   8
ENDBRANCH   6   7
ENDBRANCH   3   6
BRANCH   3  11
HETATM   11  C9  UNL     1     -23.854  66.017  25.261  1.00  0.00    -0.019 A 
HETATM   12  C10 UNL     1     -24.459  66.694  24.182  1.00  0.00     0.011 A 
HETATM   13  C11 UNL     1     -25.835  66.604  23.963  1.00  0.00     0.007 A 
HETATM   14  C12 UNL     1     -26.638  65.831  24.809  1.00  0.00    -0.062 A 
HETATM   15  C13 UNL     1     -28.118  65.762  24.575  1.00  0.00     0.048 C 
HETATM   16  C14 UNL     1     -26.052  65.162  25.892  1.00  0.00     0.007 A 
HETATM   17  C15 UNL     1     -24.674  65.251  26.115  1.00  0.00     0.011 A 
ENDBRANCH   3  11
BRANCH   4  18
HETATM   18  O6  UNL     1     -21.778  66.159  27.910  1.00  0.00    -0.310 OA
BRANCH  18  19
HETATM   19  C17 UNL     1     -22.279  65.841  29.176  1.00  0.00     0.255 C 
HETATM   20  C18 UNL     1     -23.059  64.586  29.359  1.00  0.00     0.126 C 
HETATM   21  O7  UNL     1     -22.112  66.618  30.155  1.00  0.00    -0.266 OA
ENDBRANCH  18  19
ENDBRANCH   4  18
BRANCH   1  22
HETATM   22  C3  UNL     1     -19.433  64.666  24.128  1.00  0.00     0.213 C 
BRANCH  22  23
HETATM   23  O2  UNL     1     -19.395  63.711  23.072  1.00  0.00    -0.319 OA
BRANCH  23  24
HETATM   24  C2  UNL     1     -20.090  62.500  23.121  1.00  0.00     0.254 C 
HETATM   25  C1  UNL     1     -19.643  61.435  24.062  1.00  0.00     0.126 C 
HETATM   26  O1  UNL     1     -21.089  62.300  22.378  1.00  0.00    -0.266 OA
ENDBRANCH  23  24
ENDBRANCH  22  23
ENDBRANCH   1  22
BRANCH   5  27
HETATM   27  O8  UNL     1     -20.450  63.447  26.977  1.00  0.00    -0.311 OA
BRANCH  27  28
HETATM   28  C20 UNL     1     -19.382  63.129  27.824  1.00  0.00     0.255 C 
HETATM   29  C21 UNL     1     -19.554  63.263  29.298  1.00  0.00     0.126 C 
HETATM   30  O9  UNL     1     -18.269  62.764  27.358  1.00  0.00    -0.266 OA
ENDBRANCH  27  28
ENDBRANCH   5  27
TORSDOF 11
ENDMDL
MODEL 8
REMARK VINA RESULT:      -7.1      2.038      5.307
REMARK  11 active torsions:
REMARK  status: ('A' for Active; 'I' for Inactive)
REMARK    1  A    between atoms: C2_2  and  O2_4 
REMARK    2  A    between atoms: O2_4  and  C3_5 
REMARK    3  A    between atoms: C3_5  and  C4_6 
REMARK    4  A    between atoms: C5_8  and  C6_9 
REMARK    5  A    between atoms: C5_8  and  C9_14 
REMARK    6  A    between atoms: C6_9  and  O4_10 
REMARK    7  A    between atoms: O4_10  and  C7_11 
REMARK    8  A    between atoms: C16_21  and  O6_22 
REMARK    9  A    between atoms: O6_22  and  C17_23 
REMARK   10  A    between atoms: C19_26  and  O8_27 
REMARK   11  A    between atoms: O8_27  and  C20_28 
ROOT
HETATM    1  C4  UNL     1     -22.502  63.035  25.736  1.00  0.00     0.179 C 
HETATM    2  O3  UNL     1     -22.871  63.978  24.755  1.00  0.00    -0.360 OA
HETATM    3  C5  UNL     1     -23.199  65.199  25.401  1.00  0.00     0.139 C 
HETATM    4  C16 UNL     1     -23.085  64.972  26.928  1.00  0.00     0.205 C 
HETATM    5  C19 UNL     1     -22.193  63.770  27.030  1.00  0.00     0.196 C 
ENDROOT
BRANCH   3   6
HETATM    6  C6  UNL     1     -22.208  66.267  24.876  1.00  0.00     0.224 C 
BRANCH   6   7
HETATM    7  O4  UNL     1     -21.011  65.647  24.415  1.00  0.00    -0.318 OA
BRANCH   7   8
HETATM    8  C7  UNL     1     -19.873  66.368  24.051  1.00  0.00     0.254 C 
HETATM    9  C8  UNL     1     -18.974  65.830  22.992  1.00  0.00     0.126 C 
HETATM   10  O5  UNL     1     -19.576  67.445  24.639  1.00  0.00    -0.266 OA
ENDBRANCH   7   8
ENDBRANCH   6   7
ENDBRANCH   3   6
BRANCH   3  11
HETATM   11  C9  UNL     1     -24.624  65.622  25.038  1.00  0.00    -0.019 A 
HETATM   12  C10 UNL     1     -25.720  65.103  25.757  1.00  0.00     0.011 A 
HETATM   13  C11 UNL     1     -27.027  65.472  25.433  1.00  0.00     0.007 A 
HETATM   14  C12 UNL     1     -27.271  66.373  24.390  1.00  0.00    -0.062 A 
HETATM   15  C13 UNL     1     -28.681  66.743  24.037  1.00  0.00     0.048 C 
HETATM   16  C14 UNL     1     -26.191  66.889  23.660  1.00  0.00     0.007 A 
HETATM   17  C15 UNL     1     -24.881  66.520  23.981  1.00  0.00     0.011 A 
ENDBRANCH   3  11
BRANCH   4  18
HETATM   18  O6  UNL     1     -22.503  66.085  27.614  1.00  0.00    -0.310 OA
BRANCH  18  19
HETATM   19  C17 UNL     1     -21.313  66.022  28.346  1.00  0.00     0.255 C 
HETATM   20  C18 UNL     1     -21.373  65.879  29.827  1.00  0.00     0.126 C 
HETATM   21  O7  UNL     1     -20.193  66.123  27.775  1.00  0.00    -0.266 OA
ENDBRANCH  18  19
ENDBRANCH   4  18
BRANCH   1  22
HETATM   22  C3  UNL     1     -21.306  62.216  25.242  1.00  0.00     0.213 C 
BRANCH  22  23
HETATM   23  O2  UNL     1     -20.104  62.731  25.807  1.00  0.00    -0.319 OA
BRANCH  23  24
HETATM   24  C2  UNL     1     -18.896  62.772  25.107  1.00  0.00     0.254 C 
HETATM   25  C1  UNL     1     -18.816  62.170  23.746  1.00  0.00     0.126 C 
HETATM   26  O1  UNL     1     -17.875  63.311  25.613  1.00  0.00    -0.266 OA
ENDBRANCH  23  24
ENDBRANCH  22  23
ENDBRANCH   1  22
BRANCH   5  27
HETATM   27  O8  UNL     1     -22.539  62.973  28.164  1.00  0.00    -0.311 OA
BRANCH  27  28
HETATM   28  C20 UNL     1     -23.820  62.933  28.730  1.00  0.00     0.255 C 
HETATM   29  C21 UNL     1     -24.867  62.078  28.104  1.00  0.00     0.126 C 
HETATM   30  O9  UNL     1     -24.107  63.634  29.738  1.00  0.00    -0.266 OA
ENDBRANCH  27  28
ENDBRANCH   5  27
TORSDOF 11
ENDMDL
MODEL 9
REMARK VINA RESULT:      -7.0      2.260      5.168
REMARK  11 active torsions:
REMARK  status: ('A' for Active; 'I' for Inactive)
REMARK    1  A    between atoms: C2_2  and  O2_4 
REMARK    2  A    between atoms: O2_4  and  C3_5 
REMARK    3  A    between atoms: C3_5  and  C4_6 
REMARK    4  A    between atoms: C5_8  and  C6_9 
REMARK    5  A    between atoms: C5_8  and  C9_14 
REMARK    6  A    between atoms: C6_9  and  O4_10 
REMARK    7  A    between atoms: O4_10  and  C7_11 
REMARK    8  A    between atoms: C16_21  and  O6_22 
REMARK    9  A    between atoms: O6_22  and  C17_23 
REMARK   10  A    between atoms: C19_26  and  O8_27 
REMARK   11  A    between atoms: O8_27  and  C20_28 
ROOT
HETATM    1  C4  UNL     1     -21.488  63.570  24.779  1.00  0.00     0.179 C 
HETATM    2  O3  UNL     1     -22.875  63.786  24.643  1.00  0.00    -0.360 OA
HETATM    3  C5  UNL     1     -23.296  64.682  25.659  1.00  0.00     0.139 C 
HETATM    4  C16 UNL     1     -22.069  65.001  26.547  1.00  0.00     0.205 C 
HETATM    5  C19 UNL     1     -20.908  64.665  25.660  1.00  0.00     0.196 C 
ENDROOT
BRANCH   3   6
HETATM    6  C6  UNL     1     -23.866  65.934  24.949  1.00  0.00     0.224 C 
BRANCH   6   7
HETATM    7  O4  UNL     1     -24.705  65.547  23.864  1.00  0.00    -0.318 OA
BRANCH   7   8
HETATM    8  C7  UNL     1     -25.682  66.384  23.323  1.00  0.00     0.254 C 
HETATM    9  C8  UNL     1     -27.121  66.039  23.500  1.00  0.00     0.126 C 
HETATM   10  O5  UNL     1     -25.360  67.402  22.651  1.00  0.00    -0.266 OA
ENDBRANCH   7   8
ENDBRANCH   6   7
ENDBRANCH   3   6
BRANCH   3  11
HETATM   11  C9  UNL     1     -24.402  64.043  26.503  1.00  0.00    -0.019 A 
HETATM   12  C10 UNL     1     -24.176  62.809  27.146  1.00  0.00     0.011 A 
HETATM   13  C11 UNL     1     -25.177  62.208  27.912  1.00  0.00     0.007 A 
HETATM   14  C12 UNL     1     -26.424  62.827  28.059  1.00  0.00    -0.062 A 
HETATM   15  C13 UNL     1     -27.498  62.159  28.865  1.00  0.00     0.048 C 
HETATM   16  C14 UNL     1     -26.666  64.048  27.416  1.00  0.00     0.007 A 
HETATM   17  C15 UNL     1     -25.665  64.652  26.647  1.00  0.00     0.011 A 
ENDBRANCH   3  11
BRANCH   4  18
HETATM   18  O6  UNL     1     -22.012  66.375  26.945  1.00  0.00    -0.310 OA
BRANCH  18  19
HETATM   19  C17 UNL     1     -21.293  66.844  28.049  1.00  0.00     0.255 C 
HETATM   20  C18 UNL     1     -20.665  68.193  27.992  1.00  0.00     0.126 C 
HETATM   21  O7  UNL     1     -21.137  66.128  29.075  1.00  0.00    -0.266 OA
ENDBRANCH  18  19
ENDBRANCH   4  18
BRANCH   1  22
HETATM   22  C3  UNL     1     -20.832  63.539  23.395  1.00  0.00     0.213 C 
BRANCH  22  23
HETATM   23  O2  UNL     1     -19.992  64.679  23.236  1.00  0.00    -0.319 OA
BRANCH  23  24
HETATM   24  C2  UNL     1     -18.709  64.602  22.689  1.00  0.00     0.254 C 
HETATM   25  C1  UNL     1     -18.326  65.525  21.584  1.00  0.00     0.126 C 
HETATM   26  O1  UNL     1     -17.874  63.761  23.119  1.00  0.00    -0.266 OA
ENDBRANCH  23  24
ENDBRANCH  22  23
ENDBRANCH   1  22
BRANCH   5  27
HETATM   27  O8  UNL     1     -19.806  64.171  26.426  1.00  0.00    -0.311 OA
BRANCH  27  28
HETATM   28  C20 UNL     1     -18.569  64.819  26.523  1.00  0.00     0.255 C 
HETATM   29  C21 UNL     1     -17.446  64.145  27.231  1.00  0.00     0.126 C 
HETATM   30  O9  UNL     1     -18.403  65.976  26.051  1.00  0.00    -0.266 OA
ENDBRANCH  27  28
ENDBRANCH   5  27
TORSDOF 11
ENDMDL
