MODEL 1
REMARK VINA RESULT:      -7.8      0.000      0.000
REMARK  6 active torsions:
REMARK  status: ('A' for Active; 'I' for Inactive)
REMARK    1  A    between atoms: C1_1  and  C8_10 
REMARK    2  A    between atoms: N1_2  and  C2_3 
REMARK    3  A    between atoms: C9_11  and  N2_12 
REMARK    4  A    between atoms: C10_17  and  N4_18 
REMARK    5  A    between atoms: C11_22  and  N6_23 
REMARK    6  A    between atoms: N6_23  and  C12_24 
ROOT
HETATM    1  C8  UNL     1     -20.922  65.375  25.214  1.00  0.00     0.074 A 
HETATM    2  C9  UNL     1     -20.137  66.460  24.749  1.00  0.00     0.130 A 
HETATM    3  N3  UNL     1     -18.855  66.600  25.187  1.00  0.00    -0.175 N 
HETATM    4  H8  UNL     1     -18.279  67.401  24.840  1.00  0.00     0.186 HD
HETATM    5  C10 UNL     1     -18.302  65.712  26.052  1.00  0.00     0.701 A 
HETATM    6  N5  UNL     1     -19.030  64.663  26.501  1.00  0.00    -0.044 NA
HETATM    7  C11 UNL     1     -20.316  64.460  26.107  1.00  0.00     0.184 A 
ENDROOT
BRANCH   1   8
HETATM    8  C1  UNL     1     -22.344  65.240  24.806  1.00  0.00     0.136 C 
HETATM    9  N1  UNL     1     -23.239  66.090  25.216  1.00  0.00    -0.260 NA
BRANCH   9  10
HETATM   10  C2  UNL     1     -24.643  66.071  24.908  1.00  0.00     0.056 A 
HETATM   11  C3  UNL     1     -25.184  66.711  23.773  1.00  0.00     0.033 A 
HETATM   12  C4  UNL     1     -26.559  66.647  23.518  1.00  0.00     0.021 A 
HETATM   13  C5  UNL     1     -27.402  65.943  24.382  1.00  0.00     0.011 A 
HETATM   14 BR1  UNL     1     -29.277  65.858  24.030  1.00  0.00    -0.051 Br
HETATM   15  C6  UNL     1     -26.869  65.295  25.500  1.00  0.00     0.021 A 
HETATM   16  C7  UNL     1     -25.497  65.355  25.758  1.00  0.00     0.033 A 
ENDBRANCH   9  10
ENDBRANCH   1   8
BRANCH   2  17
HETATM   17  N2  UNL     1     -20.646  67.400  23.792  1.00  0.00    -0.384 N 
HETATM   18  H6  UNL     1     -21.446  67.135  23.174  1.00  0.00     0.157 HD
HETATM   19  H7  UNL     1     -20.317  68.388  23.743  1.00  0.00     0.157 HD
ENDBRANCH   2  17
BRANCH   7  20
HETATM   20  N6  UNL     1     -21.006  63.468  26.599  1.00  0.00    -0.228 NA
BRANCH  20  21
HETATM   21  C12 UNL     1     -22.183  63.547  27.420  1.00  0.00     0.059 A 
HETATM   22  C13 UNL     1     -23.251  62.684  27.145  1.00  0.00     0.033 A 
HETATM   23  C14 UNL     1     -24.400  62.702  27.941  1.00  0.00     0.021 A 
HETATM   24  C15 UNL     1     -24.482  63.570  29.035  1.00  0.00     0.011 A 
HETATM   25 BR2  UNL     1     -26.051  63.591  30.124  1.00  0.00    -0.051 Br
HETATM   26  C16 UNL     1     -23.408  64.412  29.337  1.00  0.00     0.021 A 
HETATM   27  C17 UNL     1     -22.258  64.396  28.542  1.00  0.00     0.033 A 
ENDBRANCH  20  21
ENDBRANCH   7  20
BRANCH   5  28
HETATM   28  N4  UNL     1     -16.954  65.877  26.494  1.00  0.00    -0.233 N 
HETATM   29  H9  UNL     1     -16.674  65.618  27.465  1.00  0.00     0.174 HD
HETATM   30  H10 UNL     1     -16.231  66.263  25.845  1.00  0.00     0.174 HD
ENDBRANCH   5  28
TORSDOF 6
ENDMDL
MODEL 2
REMARK VINA RESULT:      -7.6      3.873      7.118
REMARK  6 active torsions:
REMARK  status: ('A' for Active; 'I' for Inactive)
REMARK    1  A    between atoms: C1_1  and  C8_10 
REMARK    2  A    between atoms: N1_2  and  C2_3 
REMARK    3  A    between atoms: C9_11  and  N2_12 
REMARK    4  A    between atoms: C10_17  and  N4_18 
REMARK    5  A    between atoms: C11_22  and  N6_23 
REMARK    6  A    between atoms: N6_23  and  C12_24 
ROOT
HETATM    1  C8  UNL     1     -24.661  63.638  29.846  1.00  0.00     0.074 A 
HETATM    2  C9  UNL     1     -24.209  64.230  31.051  1.00  0.00     0.130 A 
HETATM    3  N3  UNL     1     -25.108  64.814  31.893  1.00  0.00    -0.175 N 
HETATM    4  H8  UNL     1     -24.771  65.248  32.782  1.00  0.00     0.186 HD
HETATM    5  C10 UNL     1     -26.435  64.830  31.610  1.00  0.00     0.701 A 
HETATM    6  N5  UNL     1     -26.889  64.260  30.468  1.00  0.00    -0.044 NA
HETATM    7  C11 UNL     1     -26.051  63.661  29.581  1.00  0.00     0.184 A 
ENDROOT
BRANCH   1   8
HETATM    8  C1  UNL     1     -23.693  63.057  28.879  1.00  0.00     0.136 C 
HETATM    9  N1  UNL     1     -22.991  63.824  28.097  1.00  0.00    -0.260 NA
BRANCH   9  10
HETATM   10  C2  UNL     1     -22.033  63.396  27.114  1.00  0.00     0.056 A 
HETATM   11  C3  UNL     1     -20.641  63.433  27.339  1.00  0.00     0.033 A 
HETATM   12  C4  UNL     1     -19.757  62.991  26.348  1.00  0.00     0.021 A 
HETATM   13  C5  UNL     1     -20.248  62.505  25.134  1.00  0.00     0.011 A 
HETATM   14 BR1  UNL     1     -19.037  61.903  23.785  1.00  0.00    -0.051 Br
HETATM   15  C6  UNL     1     -21.626  62.453  24.911  1.00  0.00     0.021 A 
HETATM   16  C7  UNL     1     -22.513  62.892  25.898  1.00  0.00     0.033 A 
ENDBRANCH   9  10
ENDBRANCH   1   8
BRANCH   2  17
HETATM   17  N2  UNL     1     -22.827  64.197  31.434  1.00  0.00    -0.384 N 
HETATM   18  H6  UNL     1     -22.101  64.610  30.806  1.00  0.00     0.157 HD
HETATM   19  H7  UNL     1     -22.509  63.862  32.368  1.00  0.00     0.157 HD
ENDBRANCH   2  17
BRANCH   7  20
HETATM   20  N6  UNL     1     -26.515  63.168  28.467  1.00  0.00    -0.228 NA
BRANCH  20  21
HETATM   21  C12 UNL     1     -26.898  63.892  27.285  1.00  0.00     0.059 A 
HETATM   22  C13 UNL     1     -28.241  63.869  26.891  1.00  0.00     0.033 A 
HETATM   23  C14 UNL     1     -28.663  64.589  25.768  1.00  0.00     0.021 A 
HETATM   24  C15 UNL     1     -27.746  65.355  25.042  1.00  0.00     0.011 A 
HETATM   25 BR2  UNL     1     -28.324  66.341  23.512  1.00  0.00    -0.051 Br
HETATM   26  C16 UNL     1     -26.410  65.410  25.448  1.00  0.00     0.021 A 
HETATM   27  C17 UNL     1     -25.986  64.692  26.569  1.00  0.00     0.033 A 
ENDBRANCH  20  21
ENDBRANCH   7  20
BRANCH   5  28
HETATM   28  N4  UNL     1     -27.359  65.444  32.509  1.00  0.00    -0.233 N 
HETATM   29  H9  UNL     1     -28.023  64.866  33.070  1.00  0.00     0.174 HD
HETATM   30  H10 UNL     1     -27.379  66.483  32.614  1.00  0.00     0.174 HD
ENDBRANCH   5  28
TORSDOF 6
ENDMDL
MODEL 3
REMARK VINA RESULT:      -7.4      2.980      4.599
REMARK  6 active torsions:
REMARK  status: ('A' for Active; 'I' for Inactive)
REMARK    1  A    between atoms: C1_1  and  C8_10 
REMARK    2  A    between atoms: N1_2  and  C2_3 
REMARK    3  A    between atoms: C9_11  and  N2_12 
REMARK    4  A    between atoms: C10_17  and  N4_18 
REMARK    5  A    between atoms: C11_22  and  N6_23 
REMARK    6  A    between atoms: N6_23  and  C12_24 
ROOT
HETATM    1  C8  UNL     1     -21.054  64.101  24.033  1.00  0.00     0.074 A 
HETATM    2  C9  UNL     1     -20.633  62.856  23.504  1.00  0.00     0.130 A 
HETATM    3  N3  UNL     1     -19.423  62.761  22.885  1.00  0.00    -0.175 N 
HETATM    4  H8  UNL     1     -19.115  61.840  22.498  1.00  0.00     0.186 HD
HETATM    5  C10 UNL     1     -18.598  63.834  22.776  1.00  0.00     0.701 A 
HETATM    6  N5  UNL     1     -18.977  65.031  23.285  1.00  0.00    -0.044 NA
HETATM    7  C11 UNL     1     -20.170  65.200  23.913  1.00  0.00     0.184 A 
ENDROOT
BRANCH   1   8
HETATM    8  C1  UNL     1     -22.398  64.246  24.649  1.00  0.00     0.136 C 
HETATM    9  N1  UNL     1     -22.738  63.533  25.682  1.00  0.00    -0.260 NA
BRANCH   9  10
HETATM   10  C2  UNL     1     -24.002  63.566  26.367  1.00  0.00     0.056 A 
HETATM   11  C3  UNL     1     -24.996  64.527  26.089  1.00  0.00     0.033 A 
HETATM   12  C4  UNL     1     -26.212  64.501  26.780  1.00  0.00     0.021 A 
HETATM   13  C5  UNL     1     -26.452  63.518  27.744  1.00  0.00     0.011 A 
HETATM   14 BR1  UNL     1     -28.114  63.486  28.685  1.00  0.00    -0.051 Br
HETATM   15  C6  UNL     1     -25.477  62.555  28.014  1.00  0.00     0.021 A 
HETATM   16  C7  UNL     1     -24.260  62.576  27.325  1.00  0.00     0.033 A 
ENDBRANCH   9  10
ENDBRANCH   1   8
BRANCH   2  17
HETATM   17  N2  UNL     1     -21.434  61.673  23.636  1.00  0.00    -0.384 N 
HETATM   18  H6  UNL     1     -22.166  61.618  24.379  1.00  0.00     0.157 HD
HETATM   19  H7  UNL     1     -21.390  60.884  22.956  1.00  0.00     0.157 HD
ENDBRANCH   2  17
BRANCH   7  20
HETATM   20  N6  UNL     1     -20.526  66.378  24.345  1.00  0.00    -0.228 NA
BRANCH  20  21
HETATM   21  C12 UNL     1     -20.166  66.995  25.593  1.00  0.00     0.059 A 
HETATM   22  C13 UNL     1     -21.129  67.068  26.607  1.00  0.00     0.033 A 
HETATM   23  C14 UNL     1     -20.810  67.628  27.848  1.00  0.00     0.021 A 
HETATM   24  C15 UNL     1     -19.516  68.100  28.093  1.00  0.00     0.011 A 
HETATM   25 BR2  UNL     1     -19.081  68.860  29.790  1.00  0.00    -0.051 Br
HETATM   26  C16 UNL     1     -18.539  68.001  27.098  1.00  0.00     0.021 A 
HETATM   27  C17 UNL     1     -18.856  67.442  25.856  1.00  0.00     0.033 A 
ENDBRANCH  20  21
ENDBRANCH   7  20
BRANCH   5  28
HETATM   28  N4  UNL     1     -17.332  63.710  22.128  1.00  0.00    -0.233 N 
HETATM   29  H9  UNL     1     -16.707  64.537  22.014  1.00  0.00     0.174 HD
HETATM   30  H10 UNL     1     -17.019  62.784  21.758  1.00  0.00     0.174 HD
ENDBRANCH   5  28
TORSDOF 6
ENDMDL
MODEL 4
REMARK VINA RESULT:      -7.4      3.387      4.962
REMARK  6 active torsions:
REMARK  status: ('A' for Active; 'I' for Inactive)
REMARK    1  A    between atoms: C1_1  and  C8_10 
REMARK    2  A    between atoms: N1_2  and  C2_3 
REMARK    3  A    between atoms: C9_11  and  N2_12 
REMARK    4  A    between atoms: C10_17  and  N4_18 
REMARK    5  A    between atoms: C11_22  and  N6_23 
REMARK    6  A    between atoms: N6_23  and  C12_24 
ROOT
HETATM    1  C8  UNL     1     -21.458  64.291  27.494  1.00  0.00     0.074 A 
HETATM    2  C9  UNL     1     -21.329  64.616  28.867  1.00  0.00     0.130 A 
HETATM    3  N3  UNL     1     -20.341  64.039  29.606  1.00  0.00    -0.175 N 
HETATM    4  H8  UNL     1     -20.247  64.283  30.618  1.00  0.00     0.186 HD
HETATM    5  C10 UNL     1     -19.461  63.166  29.051  1.00  0.00     0.701 A 
HETATM    6  N5  UNL     1     -19.560  62.850  27.738  1.00  0.00    -0.044 NA
HETATM    7  C11 UNL     1     -20.522  63.386  26.941  1.00  0.00     0.184 A 
ENDROOT
BRANCH   1   8
HETATM    8  C1  UNL     1     -22.570  64.853  26.684  1.00  0.00     0.136 C 
HETATM    9  N1  UNL     1     -23.802  64.499  26.908  1.00  0.00    -0.260 NA
BRANCH   9  10
HETATM   10  C2  UNL     1     -24.966  64.954  26.197  1.00  0.00     0.056 A 
HETATM   11  C3  UNL     1     -24.889  65.788  25.062  1.00  0.00     0.033 A 
HETATM   12  C4  UNL     1     -26.058  66.189  24.404  1.00  0.00     0.021 A 
HETATM   13  C5  UNL     1     -27.306  65.759  24.862  1.00  0.00     0.011 A 
HETATM   14 BR1  UNL     1     -28.897  66.308  23.960  1.00  0.00    -0.051 Br
HETATM   15  C6  UNL     1     -27.387  64.921  25.977  1.00  0.00     0.021 A 
HETATM   16  C7  UNL     1     -26.222  64.517  26.637  1.00  0.00     0.033 A 
ENDBRANCH   9  10
ENDBRANCH   1   8
BRANCH   2  17
HETATM   17  N2  UNL     1     -22.192  65.573  29.498  1.00  0.00    -0.384 N 
HETATM   18  H6  UNL     1     -21.797  66.274  30.164  1.00  0.00     0.157 HD
HETATM   19  H7  UNL     1     -23.200  65.672  29.249  1.00  0.00     0.157 HD
ENDBRANCH   2  17
BRANCH   7  20
HETATM   20  N6  UNL     1     -20.620  63.020  25.693  1.00  0.00    -0.228 NA
BRANCH  20  21
HETATM   21  C12 UNL     1     -19.755  63.387  24.605  1.00  0.00     0.059 A 
HETATM   22  C13 UNL     1     -20.045  64.549  23.880  1.00  0.00     0.033 A 
HETATM   23  C14 UNL     1     -19.209  64.961  22.837  1.00  0.00     0.021 A 
HETATM   24  C15 UNL     1     -18.062  64.224  22.525  1.00  0.00     0.011 A 
HETATM   25 BR2  UNL     1     -16.919  64.791  21.104  1.00  0.00    -0.051 Br
HETATM   26  C16 UNL     1     -17.747  63.081  23.265  1.00  0.00     0.021 A 
HETATM   27  C17 UNL     1     -18.581  62.667  24.307  1.00  0.00     0.033 A 
ENDBRANCH  20  21
ENDBRANCH   7  20
BRANCH   5  28
HETATM   28  N4  UNL     1     -18.430  62.578  29.845  1.00  0.00    -0.233 N 
HETATM   29  H9  UNL     1     -17.932  61.719  29.522  1.00  0.00     0.174 HD
HETATM   30  H10 UNL     1     -18.164  63.003  30.761  1.00  0.00     0.174 HD
ENDBRANCH   5  28
TORSDOF 6
ENDMDL
MODEL 5
REMARK VINA RESULT:      -7.4      3.589      5.604
REMARK  6 active torsions:
REMARK  status: ('A' for Active; 'I' for Inactive)
REMARK    1  A    between atoms: C1_1  and  C8_10 
REMARK    2  A    between atoms: N1_2  and  C2_3 
REMARK    3  A    between atoms: C9_11  and  N2_12 
REMARK    4  A    between atoms: C10_17  and  N4_18 
REMARK    5  A    between atoms: C11_22  and  N6_23 
REMARK    6  A    between atoms: N6_23  and  C12_24 
ROOT
HETATM    1  C8  UNL     1     -20.842  64.305  25.969  1.00  0.00     0.074 A 
HETATM    2  C9  UNL     1     -20.788  63.462  27.107  1.00  0.00     0.130 A 
HETATM    3  N3  UNL     1     -19.581  63.136  27.648  1.00  0.00    -0.175 N 
HETATM    4  H8  UNL     1     -19.546  62.515  28.488  1.00  0.00     0.186 HD
HETATM    5  C10 UNL     1     -18.421  63.614  27.129  1.00  0.00     0.701 A 
HETATM    6  N5  UNL     1     -18.450  64.430  26.048  1.00  0.00    -0.044 NA
HETATM    7  C11 UNL     1     -19.618  64.797  25.456  1.00  0.00     0.184 A 
ENDROOT
BRANCH   1   8
HETATM    8  C1  UNL     1     -22.141  64.618  25.319  1.00  0.00     0.136 C 
HETATM    9  N1  UNL     1     -23.118  65.139  26.000  1.00  0.00    -0.260 NA
BRANCH   9  10
HETATM   10  C2  UNL     1     -24.423  65.480  25.502  1.00  0.00     0.056 A 
HETATM   11  C3  UNL     1     -24.617  66.319  24.384  1.00  0.00     0.033 A 
HETATM   12  C4  UNL     1     -25.912  66.606  23.937  1.00  0.00     0.021 A 
HETATM   13  C5  UNL     1     -27.019  66.057  24.590  1.00  0.00     0.011 A 
HETATM   14 BR1  UNL     1     -28.784  66.451  23.976  1.00  0.00    -0.051 Br
HETATM   15  C6  UNL     1     -26.832  65.215  25.689  1.00  0.00     0.021 A 
HETATM   16  C7  UNL     1     -25.540  64.924  26.138  1.00  0.00     0.033 A 
ENDBRANCH   9  10
ENDBRANCH   1   8
BRANCH   2  17
HETATM   17  N2  UNL     1     -21.981  62.970  27.734  1.00  0.00    -0.384 N 
HETATM   18  H6  UNL     1     -22.456  62.119  27.358  1.00  0.00     0.157 HD
HETATM   19  H7  UNL     1     -22.355  63.367  28.623  1.00  0.00     0.157 HD
ENDBRANCH   2  17
BRANCH   7  20
HETATM   20  N6  UNL     1     -19.607  65.542  24.386  1.00  0.00    -0.228 NA
BRANCH  20  21
HETATM   21  C12 UNL     1     -18.776  65.386  23.222  1.00  0.00     0.059 A 
HETATM   22  C13 UNL     1     -17.646  66.202  23.091  1.00  0.00     0.033 A 
HETATM   23  C14 UNL     1     -16.791  66.059  21.994  1.00  0.00     0.021 A 
HETATM   24  C15 UNL     1     -17.049  65.082  21.027  1.00  0.00     0.011 A 
HETATM   25 BR2  UNL     1     -15.880  64.884  19.531  1.00  0.00    -0.051 Br
HETATM   26  C16 UNL     1     -18.157  64.240  21.166  1.00  0.00     0.021 A 
HETATM   27  C17 UNL     1     -19.013  64.382  22.263  1.00  0.00     0.033 A 
ENDBRANCH  20  21
ENDBRANCH   7  20
BRANCH   5  28
HETATM   28  N4  UNL     1     -17.168  63.262  27.716  1.00  0.00    -0.233 N 
HETATM   29  H9  UNL     1     -16.434  63.985  27.882  1.00  0.00     0.174 HD
HETATM   30  H10 UNL     1     -16.973  62.272  27.985  1.00  0.00     0.174 HD
ENDBRANCH   5  28
TORSDOF 6
ENDMDL
MODEL 6
REMARK VINA RESULT:      -7.3      2.945      6.227
REMARK  6 active torsions:
REMARK  status: ('A' for Active; 'I' for Inactive)
REMARK    1  A    between atoms: C1_1  and  C8_10 
REMARK    2  A    between atoms: N1_2  and  C2_3 
REMARK    3  A    between atoms: C9_11  and  N2_12 
REMARK    4  A    between atoms: C10_17  and  N4_18 
REMARK    5  A    between atoms: C11_22  and  N6_23 
REMARK    6  A    between atoms: N6_23  and  C12_24 
ROOT
HETATM    1  C8  UNL     1     -21.712  64.510  26.902  1.00  0.00     0.074 A 
HETATM    2  C9  UNL     1     -20.918  63.342  27.009  1.00  0.00     0.130 A 
HETATM    3  N3  UNL     1     -20.722  62.558  25.911  1.00  0.00    -0.175 N 
HETATM    4  H8  UNL     1     -20.133  61.698  25.994  1.00  0.00     0.186 HD
HETATM    5  C10 UNL     1     -21.259  62.881  24.707  1.00  0.00     0.701 A 
HETATM    6  N5  UNL     1     -22.012  63.999  24.581  1.00  0.00    -0.044 NA
HETATM    7  C11 UNL     1     -22.252  64.826  25.633  1.00  0.00     0.184 A 
ENDROOT
BRANCH   1   8
HETATM    8  C1  UNL     1     -22.000  65.342  28.100  1.00  0.00     0.136 C 
HETATM    9  N1  UNL     1     -21.048  65.992  28.703  1.00  0.00    -0.260 NA
BRANCH   9  10
HETATM   10  C2  UNL     1     -21.184  66.821  29.870  1.00  0.00     0.056 A 
HETATM   11  C3  UNL     1     -20.198  67.748  30.267  1.00  0.00     0.033 A 
HETATM   12  C4  UNL     1     -20.392  68.536  31.407  1.00  0.00     0.021 A 
HETATM   13  C5  UNL     1     -21.567  68.416  32.153  1.00  0.00     0.011 A 
HETATM   14 BR1  UNL     1     -21.828  69.495  33.707  1.00  0.00    -0.051 Br
HETATM   15  C6  UNL     1     -22.554  67.510  31.757  1.00  0.00     0.021 A 
HETATM   16  C7  UNL     1     -22.365  66.721  30.618  1.00  0.00     0.033 A 
ENDBRANCH   9  10
ENDBRANCH   1   8
BRANCH   2  17
HETATM   17  N2  UNL     1     -20.278  62.978  28.240  1.00  0.00    -0.384 N 
HETATM   18  H6  UNL     1     -20.579  63.421  29.136  1.00  0.00     0.157 HD
HETATM   19  H7  UNL     1     -19.578  62.207  28.304  1.00  0.00     0.157 HD
ENDBRANCH   2  17
BRANCH   7  20
HETATM   20  N6  UNL     1     -23.024  65.867  25.488  1.00  0.00    -0.228 NA
BRANCH  20  21
HETATM   21  C12 UNL     1     -24.414  65.878  25.121  1.00  0.00     0.059 A 
HETATM   22  C13 UNL     1     -25.330  65.211  25.944  1.00  0.00     0.033 A 
HETATM   23  C14 UNL     1     -26.696  65.227  25.644  1.00  0.00     0.021 A 
HETATM   24  C15 UNL     1     -27.160  65.929  24.527  1.00  0.00     0.011 A 
HETATM   25 BR2  UNL     1     -29.025  65.953  24.120  1.00  0.00    -0.051 Br
HETATM   26  C16 UNL     1     -26.257  66.625  23.718  1.00  0.00     0.021 A 
HETATM   27  C17 UNL     1     -24.891  66.610  24.016  1.00  0.00     0.033 A 
ENDBRANCH  20  21
ENDBRANCH   7  20
BRANCH   5  28
HETATM   28  N4  UNL     1     -21.035  62.047  23.569  1.00  0.00    -0.233 N 
HETATM   29  H9  UNL     1     -20.113  62.047  23.081  1.00  0.00     0.174 HD
HETATM   30  H10 UNL     1     -21.797  61.427  23.214  1.00  0.00     0.174 HD
ENDBRANCH   5  28
TORSDOF 6
ENDMDL
MODEL 7
REMARK VINA RESULT:      -7.2      3.660      6.602
REMARK  6 active torsions:
REMARK  status: ('A' for Active; 'I' for Inactive)
REMARK    1  A    between atoms: C1_1  and  C8_10 
REMARK    2  A    between atoms: N1_2  and  C2_3 
REMARK    3  A    between atoms: C9_11  and  N2_12 
REMARK    4  A    between atoms: C10_17  and  N4_18 
REMARK    5  A    between atoms: C11_22  and  N6_23 
REMARK    6  A    between atoms: N6_23  and  C12_24 
ROOT
HETATM    1  C8  UNL     1     -21.054  64.366  26.713  1.00  0.00     0.074 A 
HETATM    2  C9  UNL     1     -20.590  63.442  27.682  1.00  0.00     0.130 A 
HETATM    3  N3  UNL     1     -21.352  63.179  28.781  1.00  0.00    -0.175 N 
HETATM    4  H8  UNL     1     -21.008  62.495  29.493  1.00  0.00     0.186 HD
HETATM    5  C10 UNL     1     -22.560  63.771  28.962  1.00  0.00     0.701 A 
HETATM    6  N5  UNL     1     -23.027  64.649  28.042  1.00  0.00    -0.044 NA
HETATM    7  C11 UNL     1     -22.321  64.961  26.924  1.00  0.00     0.184 A 
ENDROOT
BRANCH   1   8
HETATM    8  C1  UNL     1     -20.210  64.724  25.543  1.00  0.00     0.136 C 
HETATM    9  N1  UNL     1     -19.634  63.801  24.831  1.00  0.00    -0.260 NA
BRANCH   9  10
HETATM   10  C2  UNL     1     -18.788  64.006  23.686  1.00  0.00     0.056 A 
HETATM   11  C3  UNL     1     -19.177  64.792  22.581  1.00  0.00     0.033 A 
HETATM   12  C4  UNL     1     -18.305  64.965  21.500  1.00  0.00     0.021 A 
HETATM   13  C5  UNL     1     -17.042  64.368  21.513  1.00  0.00     0.011 A 
HETATM   14 BR1  UNL     1     -15.855  64.608  20.036  1.00  0.00    -0.051 Br
HETATM   15  C6  UNL     1     -16.646  63.600  22.611  1.00  0.00     0.021 A 
HETATM   16  C7  UNL     1     -17.513  63.426  23.694  1.00  0.00     0.033 A 
ENDBRANCH   9  10
ENDBRANCH   1   8
BRANCH   2  17
HETATM   17  N2  UNL     1     -19.349  62.742  27.520  1.00  0.00    -0.384 N 
HETATM   18  H6  UNL     1     -18.858  62.756  26.598  1.00  0.00     0.157 HD
HETATM   19  H7  UNL     1     -18.850  62.289  28.315  1.00  0.00     0.157 HD
ENDBRANCH   2  17
BRANCH   7  20
HETATM   20  N6  UNL     1     -22.776  65.849  26.085  1.00  0.00    -0.228 NA
BRANCH  20  21
HETATM   21  C12 UNL     1     -24.075  65.884  25.470  1.00  0.00     0.059 A 
HETATM   22  C13 UNL     1     -25.139  65.240  26.115  1.00  0.00     0.033 A 
HETATM   23  C14 UNL     1     -26.427  65.279  25.570  1.00  0.00     0.021 A 
HETATM   24  C15 UNL     1     -26.665  65.982  24.385  1.00  0.00     0.011 A 
HETATM   25 BR2  UNL     1     -28.424  66.038  23.644  1.00  0.00    -0.051 Br
HETATM   26  C16 UNL     1     -25.616  66.655  23.751  1.00  0.00     0.021 A 
HETATM   27  C17 UNL     1     -24.328  66.616  24.294  1.00  0.00     0.033 A 
ENDBRANCH  20  21
ENDBRANCH   7  20
BRANCH   5  28
HETATM   28  N4  UNL     1     -23.344  63.475  30.119  1.00  0.00    -0.233 N 
HETATM   29  H9  UNL     1     -24.186  62.863  30.051  1.00  0.00     0.174 HD
HETATM   30  H10 UNL     1     -23.080  63.872  31.048  1.00  0.00     0.174 HD
ENDBRANCH   5  28
TORSDOF 6
ENDMDL
MODEL 8
REMARK VINA RESULT:      -7.2      2.979      4.272
REMARK  6 active torsions:
REMARK  status: ('A' for Active; 'I' for Inactive)
REMARK    1  A    between atoms: C1_1  and  C8_10 
REMARK    2  A    between atoms: N1_2  and  C2_3 
REMARK    3  A    between atoms: C9_11  and  N2_12 
REMARK    4  A    between atoms: C10_17  and  N4_18 
REMARK    5  A    between atoms: C11_22  and  N6_23 
REMARK    6  A    between atoms: N6_23  and  C12_24 
ROOT
HETATM    1  C8  UNL     1     -20.461  65.391  24.221  1.00  0.00     0.074 A 
HETATM    2  C9  UNL     1     -19.811  64.488  23.344  1.00  0.00     0.130 A 
HETATM    3  N3  UNL     1     -18.698  64.888  22.668  1.00  0.00    -0.175 N 
HETATM    4  H8  UNL     1     -18.220  64.217  22.023  1.00  0.00     0.186 HD
HETATM    5  C10 UNL     1     -18.184  66.134  22.826  1.00  0.00     0.701 A 
HETATM    6  N5  UNL     1     -18.783  67.010  23.668  1.00  0.00    -0.044 NA
HETATM    7  C11 UNL     1     -19.897  66.681  24.374  1.00  0.00     0.184 A 
ENDROOT
BRANCH   1   8
HETATM    8  C1  UNL     1     -21.715  65.002  24.916  1.00  0.00     0.136 C 
HETATM    9  N1  UNL     1     -22.861  65.496  24.547  1.00  0.00    -0.260 NA
BRANCH   9  10
HETATM   10  C2  UNL     1     -24.143  65.215  25.135  1.00  0.00     0.056 A 
HETATM   11  C3  UNL     1     -24.308  64.326  26.218  1.00  0.00     0.033 A 
HETATM   12  C4  UNL     1     -25.580  64.102  26.756  1.00  0.00     0.021 A 
HETATM   13  C5  UNL     1     -26.693  64.764  26.230  1.00  0.00     0.011 A 
HETATM   14 BR1  UNL     1     -28.427  64.455  26.968  1.00  0.00    -0.051 Br
HETATM   15  C6  UNL     1     -26.533  65.656  25.167  1.00  0.00     0.021 A 
HETATM   16  C7  UNL     1     -25.264  65.885  24.626  1.00  0.00     0.033 A 
ENDBRANCH   9  10
ENDBRANCH   1   8
BRANCH   2  17
HETATM   17  N2  UNL     1     -20.272  63.140  23.176  1.00  0.00    -0.384 N 
HETATM   18  H6  UNL     1     -19.786  62.356  23.667  1.00  0.00     0.157 HD
HETATM   19  H7  UNL     1     -21.145  62.904  22.657  1.00  0.00     0.157 HD
ENDBRANCH   2  17
BRANCH   7  20
HETATM   20  N6  UNL     1     -20.479  67.565  25.136  1.00  0.00    -0.228 NA
BRANCH  20  21
HETATM   21  C12 UNL     1     -20.206  67.838  26.521  1.00  0.00     0.059 A 
HETATM   22  C13 UNL     1     -19.075  68.597  26.844  1.00  0.00     0.033 A 
HETATM   23  C14 UNL     1     -18.793  68.916  28.176  1.00  0.00     0.021 A 
HETATM   24  C15 UNL     1     -19.653  68.495  29.195  1.00  0.00     0.011 A 
HETATM   25 BR2  UNL     1     -19.268  68.935  31.014  1.00  0.00    -0.051 Br
HETATM   26  C16 UNL     1     -20.802  67.764  28.879  1.00  0.00     0.021 A 
HETATM   27  C17 UNL     1     -21.086  67.444  27.548  1.00  0.00     0.033 A 
ENDBRANCH  20  21
ENDBRANCH   7  20
BRANCH   5  28
HETATM   28  N4  UNL     1     -17.013  66.530  22.110  1.00  0.00    -0.233 N 
HETATM   29  H9  UNL     1     -16.149  65.947  22.137  1.00  0.00     0.174 HD
HETATM   30  H10 UNL     1     -17.012  67.412  21.551  1.00  0.00     0.174 HD
ENDBRANCH   5  28
TORSDOF 6
ENDMDL
MODEL 9
REMARK VINA RESULT:      -7.2      3.111      4.086
REMARK  6 active torsions:
REMARK  status: ('A' for Active; 'I' for Inactive)
REMARK    1  A    between atoms: C1_1  and  C8_10 
REMARK    2  A    between atoms: N1_2  and  C2_3 
REMARK    3  A    between atoms: C9_11  and  N2_12 
REMARK    4  A    between atoms: C10_17  and  N4_18 
REMARK    5  A    between atoms: C11_22  and  N6_23 
REMARK    6  A    between atoms: N6_23  and  C12_24 
ROOT
HETATM    1  C8  UNL     1     -19.792  62.748  25.010  1.00  0.00     0.074 A 
HETATM    2  C9  UNL     1     -19.350  62.189  23.786  1.00  0.00     0.130 A 
HETATM    3  N3  UNL     1     -18.048  62.334  23.410  1.00  0.00    -0.175 N 
HETATM    4  H8  UNL     1     -17.726  61.917  22.507  1.00  0.00     0.186 HD
HETATM    5  C10 UNL     1     -17.155  62.992  24.193  1.00  0.00     0.701 A 
HETATM    6  N5  UNL     1     -17.555  63.526  25.372  1.00  0.00    -0.044 NA
HETATM    7  C11 UNL     1     -18.837  63.421  25.810  1.00  0.00     0.184 A 
ENDROOT
BRANCH   1   8
HETATM    8  C1  UNL     1     -21.221  62.665  25.409  1.00  0.00     0.136 C 
HETATM    9  N1  UNL     1     -21.919  63.743  25.617  1.00  0.00    -0.260 NA
BRANCH   9  10
HETATM   10  C2  UNL     1     -23.299  63.806  26.014  1.00  0.00     0.056 A 
HETATM   11  C3  UNL     1     -23.868  62.909  26.943  1.00  0.00     0.033 A 
HETATM   12  C4  UNL     1     -25.216  63.028  27.300  1.00  0.00     0.021 A 
HETATM   13  C5  UNL     1     -26.004  64.040  26.745  1.00  0.00     0.011 A 
HETATM   14 BR1  UNL     1     -27.843  64.198  27.236  1.00  0.00    -0.051 Br
HETATM   15  C6  UNL     1     -25.442  64.940  25.835  1.00  0.00     0.021 A 
HETATM   16  C7  UNL     1     -24.096  64.826  25.477  1.00  0.00     0.033 A 
ENDBRANCH   9  10
ENDBRANCH   1   8
BRANCH   2  17
HETATM   17  N2  UNL     1     -20.231  61.434  22.943  1.00  0.00    -0.384 N 
HETATM   18  H6  UNL     1     -19.868  60.992  22.069  1.00  0.00     0.157 HD
HETATM   19  H7  UNL     1     -21.215  61.216  23.209  1.00  0.00     0.157 HD
ENDBRANCH   2  17
BRANCH   7  20
HETATM   20  N6  UNL     1     -19.200  63.991  26.925  1.00  0.00    -0.228 NA
BRANCH  20  21
HETATM   21  C12 UNL     1     -19.314  63.379  28.221  1.00  0.00     0.059 A 
HETATM   22  C13 UNL     1     -18.141  63.036  28.906  1.00  0.00     0.033 A 
HETATM   23  C14 UNL     1     -18.205  62.471  30.184  1.00  0.00     0.021 A 
HETATM   24  C15 UNL     1     -19.445  62.265  30.797  1.00  0.00     0.011 A 
HETATM   25 BR2  UNL     1     -19.532  61.498  32.544  1.00  0.00    -0.051 Br
HETATM   26  C16 UNL     1     -20.619  62.635  30.135  1.00  0.00     0.021 A 
HETATM   27  C17 UNL     1     -20.558  63.199  28.857  1.00  0.00     0.033 A 
ENDBRANCH  20  21
ENDBRANCH   7  20
BRANCH   5  28
HETATM   28  N4  UNL     1     -15.795  63.127  23.780  1.00  0.00    -0.233 N 
HETATM   29  H9  UNL     1     -15.455  62.673  22.905  1.00  0.00     0.174 HD
HETATM   30  H10 UNL     1     -15.124  63.684  24.355  1.00  0.00     0.174 HD
ENDBRANCH   5  28
TORSDOF 6
ENDMDL
