MODEL 1
REMARK VINA RESULT:      -9.0      0.000      0.000
REMARK  3 active torsions:
REMARK  status: ('A' for Active; 'I' for Inactive)
REMARK    1  A    between atoms: C1_3  and  O1_4 
REMARK    2  A    between atoms: C1_3  and  C2_6 
REMARK    3  A    between atoms: C2_6  and  C3_7 
ROOT
HETATM    1  C3  UNL     1     -27.287  66.222  24.710  1.00  0.00    -0.048 A 
HETATM    2  C4  UNL     1     -28.441  65.689  25.342  1.00  0.00     0.008 A 
HETATM    3  C5  UNL     1     -28.329  64.664  26.300  1.00  0.00     0.015 A 
HETATM    4  C6  UNL     1     -27.052  64.196  26.600  1.00  0.00     0.003 A 
HETATM    5  C7  UNL     1     -26.612  63.226  27.472  1.00  0.00     0.003 A 
HETATM    6  C8  UNL     1     -27.294  62.383  28.347  1.00  0.00     0.014 A 
HETATM    7  C9  UNL     1     -26.531  61.484  29.115  1.00  0.00     0.001 A 
HETATM    8  C10 UNL     1     -25.124  61.451  28.991  1.00  0.00     0.002 A 
HETATM    9  C11 UNL     1     -24.462  62.314  28.098  1.00  0.00     0.030 A 
HETATM   10  C12 UNL     1     -25.238  63.196  27.348  1.00  0.00     0.043 A 
HETATM   11  N2  UNL     1     -24.803  64.100  26.443  1.00  0.00    -0.355 N 
HETATM   12  H11 UNL     1     -23.816  64.289  26.154  1.00  0.00     0.166 HD
HETATM   13  C13 UNL     1     -25.924  64.706  25.994  1.00  0.00     0.044 A 
HETATM   14  C14 UNL     1     -26.007  65.720  25.042  1.00  0.00     0.038 A 
ENDROOT
BRANCH   1  15
HETATM   15  C2  UNL     1     -27.418  67.320  23.690  1.00  0.00     0.123 C 
BRANCH  15  16
HETATM   16  C1  UNL     1     -26.379  67.166  22.624  1.00  0.00     0.134 C 
HETATM   17  N1  UNL     1     -25.179  67.610  22.822  1.00  0.00    -0.282 NA
HETATM   18  H1  UNL     1     -24.438  67.523  22.089  1.00  0.00     0.189 HD
BRANCH  16  19
HETATM   19  O1  UNL     1     -26.724  66.567  21.414  1.00  0.00    -0.348 OA
HETATM   20  H2  UNL     1     -27.668  66.244  21.234  1.00  0.00     0.219 HD
ENDBRANCH  16  19
ENDBRANCH  15  16
ENDBRANCH   1  15
TORSDOF 3
ENDMDL
MODEL 2
REMARK VINA RESULT:      -8.9      3.071      4.884
REMARK  3 active torsions:
REMARK  status: ('A' for Active; 'I' for Inactive)
REMARK    1  A    between atoms: C1_3  and  O1_4 
REMARK    2  A    between atoms: C1_3  and  C2_6 
REMARK    3  A    between atoms: C2_6  and  C3_7 
ROOT
HETATM    1  C3  UNL     1     -22.727  66.130  25.814  1.00  0.00    -0.048 A 
HETATM    2  C4  UNL     1     -23.269  65.290  26.821  1.00  0.00     0.008 A 
HETATM    3  C5  UNL     1     -24.620  64.897  26.781  1.00  0.00     0.015 A 
HETATM    4  C6  UNL     1     -25.398  65.363  25.725  1.00  0.00     0.003 A 
HETATM    5  C7  UNL     1     -26.722  65.166  25.403  1.00  0.00     0.003 A 
HETATM    6  C8  UNL     1     -27.732  64.435  26.026  1.00  0.00     0.014 A 
HETATM    7  C9  UNL     1     -29.005  64.440  25.427  1.00  0.00     0.001 A 
HETATM    8  C10 UNL     1     -29.234  65.165  24.236  1.00  0.00     0.002 A 
HETATM    9  C11 UNL     1     -28.195  65.895  23.630  1.00  0.00     0.030 A 
HETATM   10  C12 UNL     1     -26.942  65.876  24.240  1.00  0.00     0.043 A 
HETATM   11  N2  UNL     1     -25.821  66.503  23.823  1.00  0.00    -0.355 N 
HETATM   12  H11 UNL     1     -25.705  67.106  22.977  1.00  0.00     0.166 HD
HETATM   13  C13 UNL     1     -24.884  66.180  24.740  1.00  0.00     0.044 A 
HETATM   14  C14 UNL     1     -23.550  66.583  24.757  1.00  0.00     0.038 A 
ENDROOT
BRANCH   1  15
HETATM   15  C2  UNL     1     -21.281  66.540  25.865  1.00  0.00     0.123 C 
BRANCH  15  16
HETATM   16  C1  UNL     1     -21.042  67.718  24.972  1.00  0.00     0.134 C 
HETATM   17  N1  UNL     1     -21.193  68.919  25.432  1.00  0.00    -0.282 NA
HETATM   18  H1  UNL     1     -21.042  69.758  24.827  1.00  0.00     0.189 HD
BRANCH  16  19
HETATM   19  O1  UNL     1     -20.684  67.507  23.642  1.00  0.00    -0.348 OA
HETATM   20  H2  UNL     1     -20.168  68.203  23.117  1.00  0.00     0.219 HD
ENDBRANCH  16  19
ENDBRANCH  15  16
ENDBRANCH   1  15
TORSDOF 3
ENDMDL
MODEL 3
REMARK VINA RESULT:      -8.7      1.285      2.090
REMARK  3 active torsions:
REMARK  status: ('A' for Active; 'I' for Inactive)
REMARK    1  A    between atoms: C1_3  and  O1_4 
REMARK    2  A    between atoms: C1_3  and  C2_6 
REMARK    3  A    between atoms: C2_6  and  C3_7 
ROOT
HETATM    1  C3  UNL     1     -27.129  66.031  24.746  1.00  0.00    -0.048 A 
HETATM    2  C4  UNL     1     -25.728  65.892  24.925  1.00  0.00     0.008 A 
HETATM    3  C5  UNL     1     -25.209  64.983  25.865  1.00  0.00     0.015 A 
HETATM    4  C6  UNL     1     -26.116  64.232  26.608  1.00  0.00     0.003 A 
HETATM    5  C7  UNL     1     -25.937  63.278  27.584  1.00  0.00     0.003 A 
HETATM    6  C8  UNL     1     -24.787  62.742  28.160  1.00  0.00     0.014 A 
HETATM    7  C9  UNL     1     -24.952  61.761  29.155  1.00  0.00     0.001 A 
HETATM    8  C10 UNL     1     -26.246  61.346  29.545  1.00  0.00     0.002 A 
HETATM    9  C11 UNL     1     -27.389  61.905  28.945  1.00  0.00     0.030 A 
HETATM   10  C12 UNL     1     -27.201  62.875  27.962  1.00  0.00     0.043 A 
HETATM   11  N2  UNL     1     -28.158  63.531  27.269  1.00  0.00    -0.355 N 
HETATM   12  H11 UNL     1     -29.194  63.423  27.353  1.00  0.00     0.166 HD
HETATM   13  C13 UNL     1     -27.480  64.358  26.443  1.00  0.00     0.044 A 
HETATM   14  C14 UNL     1     -28.019  65.251  25.520  1.00  0.00     0.038 A 
ENDROOT
BRANCH   1  15
HETATM   15  C2  UNL     1     -27.672  67.003  23.734  1.00  0.00     0.123 C 
BRANCH  15  16
HETATM   16  C1  UNL     1     -26.625  67.333  22.716  1.00  0.00     0.134 C 
HETATM   17  N1  UNL     1     -26.637  66.745  21.563  1.00  0.00    -0.282 NA
HETATM   18  H1  UNL     1     -25.912  66.951  20.838  1.00  0.00     0.189 HD
BRANCH  16  19
HETATM   19  O1  UNL     1     -25.630  68.256  23.032  1.00  0.00    -0.348 OA
HETATM   20  H2  UNL     1     -24.660  68.093  22.786  1.00  0.00     0.219 HD
ENDBRANCH  16  19
ENDBRANCH  15  16
ENDBRANCH   1  15
TORSDOF 3
ENDMDL
MODEL 4
REMARK VINA RESULT:      -8.4      2.968      6.077
REMARK  3 active torsions:
REMARK  status: ('A' for Active; 'I' for Inactive)
REMARK    1  A    between atoms: C1_3  and  O1_4 
REMARK    2  A    between atoms: C1_3  and  C2_6 
REMARK    3  A    between atoms: C2_6  and  C3_7 
ROOT
HETATM    1  C3  UNL     1     -26.541  63.123  28.464  1.00  0.00    -0.048 A 
HETATM    2  C4  UNL     1     -27.798  63.306  27.831  1.00  0.00     0.008 A 
HETATM    3  C5  UNL     1     -27.917  64.120  26.690  1.00  0.00     0.015 A 
HETATM    4  C6  UNL     1     -26.764  64.736  26.211  1.00  0.00     0.003 A 
HETATM    5  C7  UNL     1     -26.547  65.572  25.140  1.00  0.00     0.003 A 
HETATM    6  C8  UNL     1     -27.408  66.089  24.173  1.00  0.00     0.014 A 
HETATM    7  C9  UNL     1     -26.858  66.935  23.194  1.00  0.00     0.001 A 
HETATM    8  C10 UNL     1     -25.477  67.240  23.204  1.00  0.00     0.002 A 
HETATM    9  C11 UNL     1     -24.632  66.704  24.192  1.00  0.00     0.030 A 
HETATM   10  C12 UNL     1     -25.199  65.869  25.153  1.00  0.00     0.043 A 
HETATM   11  N2  UNL     1     -24.568  65.256  26.178  1.00  0.00    -0.355 N 
HETATM   12  H11 UNL     1     -23.553  65.306  26.423  1.00  0.00     0.166 HD
HETATM   13  C13 UNL     1     -25.537  64.565  26.817  1.00  0.00     0.044 A 
HETATM   14  C14 UNL     1     -25.392  63.765  27.948  1.00  0.00     0.038 A 
ENDROOT
BRANCH   1  15
HETATM   15  C2  UNL     1     -26.425  62.246  29.682  1.00  0.00     0.123 C 
BRANCH  15  16
HETATM   16  C1  UNL     1     -26.526  63.071  30.927  1.00  0.00     0.134 C 
HETATM   17  N1  UNL     1     -26.292  62.532  32.081  1.00  0.00    -0.282 NA
HETATM   18  H1  UNL     1     -26.366  63.084  32.966  1.00  0.00     0.189 HD
BRANCH  16  19
HETATM   19  O1  UNL     1     -26.898  64.411  30.832  1.00  0.00    -0.348 OA
HETATM   20  H2  UNL     1     -26.804  64.925  29.964  1.00  0.00     0.219 HD
ENDBRANCH  16  19
ENDBRANCH  15  16
ENDBRANCH   1  15
TORSDOF 3
ENDMDL
MODEL 5
REMARK VINA RESULT:      -8.1      3.380      5.003
REMARK  3 active torsions:
REMARK  status: ('A' for Active; 'I' for Inactive)
REMARK    1  A    between atoms: C1_3  and  O1_4 
REMARK    2  A    between atoms: C1_3  and  C2_6 
REMARK    3  A    between atoms: C2_6  and  C3_7 
ROOT
HETATM    1  C3  UNL     1     -22.598  66.197  25.886  1.00  0.00    -0.048 A 
HETATM    2  C4  UNL     1     -23.111  66.808  24.712  1.00  0.00     0.008 A 
HETATM    3  C5  UNL     1     -24.452  66.620  24.329  1.00  0.00     0.015 A 
HETATM    4  C6  UNL     1     -25.249  65.816  25.140  1.00  0.00     0.003 A 
HETATM    5  C7  UNL     1     -26.571  65.442  25.046  1.00  0.00     0.003 A 
HETATM    6  C8  UNL     1     -27.558  65.741  24.109  1.00  0.00     0.014 A 
HETATM    7  C9  UNL     1     -28.836  65.187  24.308  1.00  0.00     0.001 A 
HETATM    8  C10 UNL     1     -29.092  64.359  25.425  1.00  0.00     0.002 A 
HETATM    9  C11 UNL     1     -28.075  64.074  26.355  1.00  0.00     0.030 A 
HETATM   10  C12 UNL     1     -26.818  64.634  26.137  1.00  0.00     0.043 A 
HETATM   11  N2  UNL     1     -25.715  64.488  26.905  1.00  0.00    -0.355 N 
HETATM   12  H11 UNL     1     -25.620  63.933  27.785  1.00  0.00     0.166 HD
HETATM   13  C13 UNL     1     -24.763  65.217  26.282  1.00  0.00     0.044 A 
HETATM   14  C14 UNL     1     -23.439  65.387  26.683  1.00  0.00     0.038 A 
ENDROOT
BRANCH   1  15
HETATM   15  C2  UNL     1     -21.164  66.409  26.287  1.00  0.00     0.123 C 
BRANCH  15  16
HETATM   16  C1  UNL     1     -20.770  67.838  26.075  1.00  0.00     0.134 C 
HETATM   17  N1  UNL     1     -21.128  68.742  26.930  1.00  0.00    -0.282 NA
HETATM   18  H1  UNL     1     -20.875  69.747  26.800  1.00  0.00     0.189 HD
BRANCH  16  19
HETATM   19  O1  UNL     1     -20.041  68.185  24.939  1.00  0.00    -0.348 OA
HETATM   20  H2  UNL     1     -20.495  68.343  24.047  1.00  0.00     0.219 HD
ENDBRANCH  16  19
ENDBRANCH  15  16
ENDBRANCH   1  15
TORSDOF 3
ENDMDL
MODEL 6
REMARK VINA RESULT:      -8.0      2.009      2.614
REMARK  3 active torsions:
REMARK  status: ('A' for Active; 'I' for Inactive)
REMARK    1  A    between atoms: C1_3  and  O1_4 
REMARK    2  A    between atoms: C1_3  and  C2_6 
REMARK    3  A    between atoms: C2_6  and  C3_7 
ROOT
HETATM    1  C3  UNL     1     -26.467  65.842  24.973  1.00  0.00    -0.048 A 
HETATM    2  C4  UNL     1     -27.030  64.991  25.959  1.00  0.00     0.008 A 
HETATM    3  C5  UNL     1     -26.209  64.318  26.883  1.00  0.00     0.015 A 
HETATM    4  C6  UNL     1     -24.834  64.515  26.791  1.00  0.00     0.003 A 
HETATM    5  C7  UNL     1     -23.784  64.016  27.527  1.00  0.00     0.003 A 
HETATM    6  C8  UNL     1     -23.740  63.143  28.612  1.00  0.00     0.014 A 
HETATM    7  C9  UNL     1     -22.477  62.826  29.145  1.00  0.00     0.001 A 
HETATM    8  C10 UNL     1     -21.304  63.382  28.587  1.00  0.00     0.002 A 
HETATM    9  C11 UNL     1     -21.379  64.261  27.490  1.00  0.00     0.030 A 
HETATM   10  C12 UNL     1     -22.640  64.561  26.979  1.00  0.00     0.043 A 
HETATM   11  N2  UNL     1     -22.928  65.375  25.940  1.00  0.00    -0.355 N 
HETATM   12  H11 UNL     1     -22.257  65.914  25.348  1.00  0.00     0.166 HD
HETATM   13  C13 UNL     1     -24.274  65.338  25.837  1.00  0.00     0.044 A 
HETATM   14  C14 UNL     1     -25.065  66.016  24.910  1.00  0.00     0.038 A 
ENDROOT
BRANCH   1  15
HETATM   15  C2  UNL     1     -27.354  66.560  23.993  1.00  0.00     0.123 C 
BRANCH  15  16
HETATM   16  C1  UNL     1     -26.534  67.177  22.904  1.00  0.00     0.134 C 
HETATM   17  N1  UNL     1     -26.554  66.671  21.712  1.00  0.00    -0.282 NA
HETATM   18  H1  UNL     1     -25.983  67.078  20.937  1.00  0.00     0.189 HD
BRANCH  16  19
HETATM   19  O1  UNL     1     -25.733  68.281  23.192  1.00  0.00    -0.348 OA
HETATM   20  H2  UNL     1     -24.731  68.262  23.040  1.00  0.00     0.219 HD
ENDBRANCH  16  19
ENDBRANCH  15  16
ENDBRANCH   1  15
TORSDOF 3
ENDMDL
MODEL 7
REMARK VINA RESULT:      -7.9      3.353      4.666
REMARK  3 active torsions:
REMARK  status: ('A' for Active; 'I' for Inactive)
REMARK    1  A    between atoms: C1_3  and  O1_4 
REMARK    2  A    between atoms: C1_3  and  C2_6 
REMARK    3  A    between atoms: C2_6  and  C3_7 
ROOT
HETATM    1  C3  UNL     1     -26.434  65.442  25.144  1.00  0.00    -0.048 A 
HETATM    2  C4  UNL     1     -25.978  64.731  26.284  1.00  0.00     0.008 A 
HETATM    3  C5  UNL     1     -24.643  64.842  26.714  1.00  0.00     0.015 A 
HETATM    4  C6  UNL     1     -23.793  65.667  25.983  1.00  0.00     0.003 A 
HETATM    5  C7  UNL     1     -22.463  65.984  26.139  1.00  0.00     0.003 A 
HETATM    6  C8  UNL     1     -21.516  65.585  27.080  1.00  0.00     0.014 A 
HETATM    7  C9  UNL     1     -20.214  66.103  26.955  1.00  0.00     0.001 A 
HETATM    8  C10 UNL     1     -19.895  66.996  25.906  1.00  0.00     0.002 A 
HETATM    9  C11 UNL     1     -20.872  67.381  24.970  1.00  0.00     0.030 A 
HETATM   10  C12 UNL     1     -22.155  66.855  25.113  1.00  0.00     0.043 A 
HETATM   11  N2  UNL     1     -23.229  67.096  24.329  1.00  0.00    -0.355 N 
HETATM   12  H11 UNL     1     -23.278  67.713  23.487  1.00  0.00     0.166 HD
HETATM   13  C13 UNL     1     -24.224  66.363  24.873  1.00  0.00     0.044 A 
HETATM   14  C14 UNL     1     -25.541  66.270  24.426  1.00  0.00     0.038 A 
ENDROOT
BRANCH   1  15
HETATM   15  C2  UNL     1     -27.865  65.319  24.695  1.00  0.00     0.123 C 
BRANCH  15  16
HETATM   16  C1  UNL     1     -28.230  66.464  23.802  1.00  0.00     0.134 C 
HETATM   17  N1  UNL     1     -28.815  67.508  24.294  1.00  0.00    -0.282 NA
HETATM   18  H1  UNL     1     -29.088  68.316  23.690  1.00  0.00     0.189 HD
BRANCH  16  19
HETATM   19  O1  UNL     1     -27.957  66.381  22.438  1.00  0.00    -0.348 OA
HETATM   20  H2  UNL     1     -27.596  67.174  21.921  1.00  0.00     0.219 HD
ENDBRANCH  16  19
ENDBRANCH  15  16
ENDBRANCH   1  15
TORSDOF 3
ENDMDL
MODEL 8
REMARK VINA RESULT:      -7.8      3.243      4.062
REMARK  3 active torsions:
REMARK  status: ('A' for Active; 'I' for Inactive)
REMARK    1  A    between atoms: C1_3  and  O1_4 
REMARK    2  A    between atoms: C1_3  and  C2_6 
REMARK    3  A    between atoms: C2_6  and  C3_7 
ROOT
HETATM    1  C3  UNL     1     -22.422  64.849  25.131  1.00  0.00    -0.048 A 
HETATM    2  C4  UNL     1     -23.566  65.665  24.935  1.00  0.00     0.008 A 
HETATM    3  C5  UNL     1     -24.784  65.362  25.572  1.00  0.00     0.015 A 
HETATM    4  C6  UNL     1     -24.823  64.239  26.394  1.00  0.00     0.003 A 
HETATM    5  C7  UNL     1     -25.836  63.685  27.143  1.00  0.00     0.003 A 
HETATM    6  C8  UNL     1     -27.165  64.059  27.332  1.00  0.00     0.014 A 
HETATM    7  C9  UNL     1     -27.954  63.259  28.180  1.00  0.00     0.001 A 
HETATM    8  C10 UNL     1     -27.401  62.122  28.810  1.00  0.00     0.002 A 
HETATM    9  C11 UNL     1     -26.055  61.769  28.601  1.00  0.00     0.030 A 
HETATM   10  C12 UNL     1     -25.293  62.575  27.757  1.00  0.00     0.043 A 
HETATM   11  N2  UNL     1     -23.993  62.412  27.427  1.00  0.00    -0.355 N 
HETATM   12  H11 UNL     1     -23.343  61.659  27.747  1.00  0.00     0.166 HD
HETATM   13  C13 UNL     1     -23.718  63.439  26.593  1.00  0.00     0.044 A 
HETATM   14  C14 UNL     1     -22.501  63.716  25.974  1.00  0.00     0.038 A 
ENDROOT
BRANCH   1  15
HETATM   15  C2  UNL     1     -21.124  65.184  24.448  1.00  0.00     0.123 C 
BRANCH  15  16
HETATM   16  C1  UNL     1     -20.742  66.604  24.727  1.00  0.00     0.134 C 
HETATM   17  N1  UNL     1     -20.713  67.467  23.762  1.00  0.00    -0.282 NA
HETATM   18  H1  UNL     1     -20.441  68.463  23.929  1.00  0.00     0.189 HD
BRANCH  16  19
HETATM   19  O1  UNL     1     -20.395  66.978  26.024  1.00  0.00    -0.348 OA
HETATM   20  H2  UNL     1     -19.738  67.729  26.200  1.00  0.00     0.219 HD
ENDBRANCH  16  19
ENDBRANCH  15  16
ENDBRANCH   1  15
TORSDOF 3
ENDMDL
MODEL 9
REMARK VINA RESULT:      -7.8      3.051      5.855
REMARK  3 active torsions:
REMARK  status: ('A' for Active; 'I' for Inactive)
REMARK    1  A    between atoms: C1_3  and  O1_4 
REMARK    2  A    between atoms: C1_3  and  C2_6 
REMARK    3  A    between atoms: C2_6  and  C3_7 
ROOT
HETATM    1  C3  UNL     1     -24.356  63.426  28.006  1.00  0.00    -0.048 A 
HETATM    2  C4  UNL     1     -25.619  62.797  28.158  1.00  0.00     0.008 A 
HETATM    3  C5  UNL     1     -26.724  63.206  27.389  1.00  0.00     0.015 A 
HETATM    4  C6  UNL     1     -26.532  64.244  26.482  1.00  0.00     0.003 A 
HETATM    5  C7  UNL     1     -27.390  64.863  25.600  1.00  0.00     0.003 A 
HETATM    6  C8  UNL     1     -28.739  64.661  25.319  1.00  0.00     0.014 A 
HETATM    7  C9  UNL     1     -29.332  65.482  24.341  1.00  0.00     0.001 A 
HETATM    8  C10 UNL     1     -28.570  66.470  23.677  1.00  0.00     0.002 A 
HETATM    9  C11 UNL     1     -27.208  66.651  23.983  1.00  0.00     0.030 A 
HETATM   10  C12 UNL     1     -26.643  65.827  24.954  1.00  0.00     0.043 A 
HETATM   11  N2  UNL     1     -25.364  65.838  25.390  1.00  0.00    -0.355 N 
HETATM   12  H11 UNL     1     -24.588  66.462  25.074  1.00  0.00     0.166 HD
HETATM   13  C13 UNL     1     -25.310  64.863  26.324  1.00  0.00     0.044 A 
HETATM   14  C14 UNL     1     -24.201  64.478  27.074  1.00  0.00     0.038 A 
ENDROOT
BRANCH   1  15
HETATM   15  C2  UNL     1     -23.180  62.978  28.831  1.00  0.00     0.123 C 
BRANCH  15  16
HETATM   16  C1  UNL     1     -22.965  63.913  29.980  1.00  0.00     0.134 C 
HETATM   17  N1  UNL     1     -21.956  64.724  29.973  1.00  0.00    -0.282 NA
HETATM   18  H1  UNL     1     -21.778  65.380  30.767  1.00  0.00     0.189 HD
BRANCH  16  19
HETATM   19  O1  UNL     1     -23.842  63.881  31.062  1.00  0.00    -0.348 OA
HETATM   20  H2  UNL     1     -24.832  63.703  30.935  1.00  0.00     0.219 HD
ENDBRANCH  16  19
ENDBRANCH  15  16
ENDBRANCH   1  15
TORSDOF 3
ENDMDL
