MODEL 1
REMARK VINA RESULT:      -7.6      0.000      0.000
REMARK  5 active torsions:
REMARK  status: ('A' for Active; 'I' for Inactive)
REMARK    1  A    between atoms: N1_1  and  S1_2 
REMARK    2  A    between atoms: S1_2  and  C1_5 
REMARK    3  A    between atoms: C4_8  and  N2_9 
REMARK    4  A    between atoms: N2_9  and  C5_10 
REMARK    5  A    between atoms: C5_10  and  C6_11 
ROOT
HETATM    1  C1  UNL     1     -26.191  65.908  24.579  1.00  0.00     0.074 A 
HETATM    2  C2  UNL     1     -26.353  65.147  25.741  1.00  0.00     0.027 A 
HETATM    3  C3  UNL     1     -25.254  64.857  26.556  1.00  0.00     0.031 A 
HETATM    4  C4  UNL     1     -23.969  65.329  26.218  1.00  0.00     0.029 A 
HETATM    5  C11 UNL     1     -23.816  66.077  25.039  1.00  0.00     0.031 A 
HETATM    6  C12 UNL     1     -24.916  66.365  24.226  1.00  0.00     0.027 A 
ENDROOT
BRANCH   4   7
HETATM    7  N2  UNL     1     -22.804  65.055  27.026  1.00  0.00    -0.371 N 
HETATM    8  H5  UNL     1     -22.648  65.686  27.846  1.00  0.00     0.161 HD
BRANCH   7   9
HETATM    9  C5  UNL     1     -21.865  63.927  26.839  1.00  0.00     0.119 C 
HETATM   10  C7  UNL     1     -20.608  64.374  26.070  1.00  0.00     0.042 C 
HETATM   11  C8  UNL     1     -20.203  63.219  25.155  1.00  0.00     0.003 C 
HETATM   12  C9  UNL     1     -21.320  62.183  25.219  1.00  0.00     0.003 C 
HETATM   13  C10 UNL     1     -22.484  62.861  25.922  1.00  0.00     0.042 C 
BRANCH   9  14
HETATM   14  C6  UNL     1     -21.518  63.294  28.174  1.00  0.00     0.202 C 
HETATM   15  O3  UNL     1     -22.424  63.024  29.006  1.00  0.00    -0.646 OA
HETATM   16  O4  UNL     1     -20.202  62.962  28.476  1.00  0.00    -0.646 OA
ENDBRANCH   9  14
ENDBRANCH   7   9
ENDBRANCH   4   7
BRANCH   1  17
HETATM   17  S1  UNL     1     -27.574  66.255  23.546  1.00  0.00     0.239 S 
HETATM   18  O1  UNL     1     -28.386  67.372  24.140  1.00  0.00    -0.206 OA
HETATM   19  O2  UNL     1     -28.444  65.035  23.435  1.00  0.00    -0.206 OA
BRANCH  17  20
HETATM   20  N1  UNL     1     -27.023  66.716  21.973  1.00  0.00    -0.225 NA
HETATM   21  H1  UNL     1     -27.321  65.963  21.313  1.00  0.00     0.136 HD
HETATM   22  H2  UNL     1     -25.979  66.699  22.000  1.00  0.00     0.136 HD
ENDBRANCH  17  20
ENDBRANCH   1  17
TORSDOF 5
ENDMDL
MODEL 2
REMARK VINA RESULT:      -7.6      1.982      2.450
REMARK  5 active torsions:
REMARK  status: ('A' for Active; 'I' for Inactive)
REMARK    1  A    between atoms: N1_1  and  S1_2 
REMARK    2  A    between atoms: S1_2  and  C1_5 
REMARK    3  A    between atoms: C4_8  and  N2_9 
REMARK    4  A    between atoms: N2_9  and  C5_10 
REMARK    5  A    between atoms: C5_10  and  C6_11 
ROOT
HETATM    1  C1  UNL     1     -26.470  66.104  24.401  1.00  0.00     0.074 A 
HETATM    2  C2  UNL     1     -26.335  65.304  25.541  1.00  0.00     0.027 A 
HETATM    3  C3  UNL     1     -25.083  65.133  26.141  1.00  0.00     0.031 A 
HETATM    4  C4  UNL     1     -23.942  65.764  25.605  1.00  0.00     0.029 A 
HETATM    5  C11 UNL     1     -24.086  66.549  24.449  1.00  0.00     0.031 A 
HETATM    6  C12 UNL     1     -25.339  66.719  23.852  1.00  0.00     0.027 A 
ENDROOT
BRANCH   4   7
HETATM    7  N2  UNL     1     -22.628  65.615  26.187  1.00  0.00    -0.371 N 
HETATM    8  H5  UNL     1     -22.450  66.142  27.073  1.00  0.00     0.161 HD
BRANCH   7   9
HETATM    9  C5  UNL     1     -21.551  64.736  25.682  1.00  0.00     0.119 C 
HETATM   10  C7  UNL     1     -22.104  63.688  24.699  1.00  0.00     0.042 C 
HETATM   11  C8  UNL     1     -21.328  62.392  24.937  1.00  0.00     0.003 C 
HETATM   12  C9  UNL     1     -20.474  62.602  26.183  1.00  0.00     0.003 C 
HETATM   13  C10 UNL     1     -20.973  63.886  26.824  1.00  0.00     0.042 C 
BRANCH   9  14
HETATM   14  C6  UNL     1     -20.436  65.560  25.063  1.00  0.00     0.202 C 
HETATM   15  O3  UNL     1     -19.753  66.345  25.774  1.00  0.00    -0.646 OA
HETATM   16  O4  UNL     1     -20.124  65.426  23.715  1.00  0.00    -0.646 OA
ENDBRANCH   9  14
ENDBRANCH   7   9
ENDBRANCH   4   7
BRANCH   1  17
HETATM   17  S1  UNL     1     -28.045  66.303  23.639  1.00  0.00     0.239 S 
HETATM   18  O1  UNL     1     -27.872  66.528  22.164  1.00  0.00    -0.206 OA
HETATM   19  O2  UNL     1     -28.747  67.495  24.229  1.00  0.00    -0.206 OA
BRANCH  17  20
HETATM   20  N1  UNL     1     -28.999  64.885  23.899  1.00  0.00    -0.225 NA
HETATM   21  H1  UNL     1     -28.678  64.462  24.799  1.00  0.00     0.136 HD
HETATM   22  H2  UNL     1     -28.751  64.209  23.142  1.00  0.00     0.136 HD
ENDBRANCH  17  20
ENDBRANCH   1  17
TORSDOF 5
ENDMDL
MODEL 3
REMARK VINA RESULT:      -7.3      1.819      2.236
REMARK  5 active torsions:
REMARK  status: ('A' for Active; 'I' for Inactive)
REMARK    1  A    between atoms: N1_1  and  S1_2 
REMARK    2  A    between atoms: S1_2  and  C1_5 
REMARK    3  A    between atoms: C4_8  and  N2_9 
REMARK    4  A    between atoms: N2_9  and  C5_10 
REMARK    5  A    between atoms: C5_10  and  C6_11 
ROOT
HETATM    1  C1  UNL     1     -26.452  66.103  24.400  1.00  0.00     0.074 A 
HETATM    2  C2  UNL     1     -26.328  65.328  25.558  1.00  0.00     0.027 A 
HETATM    3  C3  UNL     1     -25.080  65.161  26.166  1.00  0.00     0.031 A 
HETATM    4  C4  UNL     1     -23.931  65.770  25.621  1.00  0.00     0.029 A 
HETATM    5  C11 UNL     1     -24.065  66.530  24.447  1.00  0.00     0.031 A 
HETATM    6  C12 UNL     1     -25.314  66.696  23.841  1.00  0.00     0.027 A 
ENDROOT
BRANCH   4   7
HETATM    7  N2  UNL     1     -22.621  65.624  26.211  1.00  0.00    -0.371 N 
HETATM    8  H5  UNL     1     -22.420  66.217  27.048  1.00  0.00     0.161 HD
BRANCH   7   9
HETATM    9  C5  UNL     1     -21.578  64.667  25.781  1.00  0.00     0.119 C 
HETATM   10  C7  UNL     1     -20.547  64.429  26.900  1.00  0.00     0.042 C 
HETATM   11  C8  UNL     1     -19.180  64.281  26.231  1.00  0.00     0.003 C 
HETATM   12  C9  UNL     1     -19.360  64.636  24.759  1.00  0.00     0.003 C 
HETATM   13  C10 UNL     1     -20.738  65.266  24.642  1.00  0.00     0.042 C 
BRANCH   9  14
HETATM   14  C6  UNL     1     -22.207  63.371  25.304  1.00  0.00     0.202 C 
HETATM   15  O3  UNL     1     -22.541  62.481  26.132  1.00  0.00    -0.646 OA
HETATM   16  O4  UNL     1     -22.465  63.167  23.953  1.00  0.00    -0.646 OA
ENDBRANCH   9  14
ENDBRANCH   7   9
ENDBRANCH   4   7
BRANCH   1  17
HETATM   17  S1  UNL     1     -28.022  66.297  23.628  1.00  0.00     0.239 S 
HETATM   18  O1  UNL     1     -27.841  66.525  22.154  1.00  0.00    -0.206 OA
HETATM   19  O2  UNL     1     -28.734  67.484  24.214  1.00  0.00    -0.206 OA
BRANCH  17  20
HETATM   20  N1  UNL     1     -28.972  64.874  23.878  1.00  0.00    -0.225 NA
HETATM   21  H1  UNL     1     -29.095  64.422  22.945  1.00  0.00     0.136 HD
HETATM   22  H2  UNL     1     -29.919  65.190  24.187  1.00  0.00     0.136 HD
ENDBRANCH  17  20
ENDBRANCH   1  17
TORSDOF 5
ENDMDL
MODEL 4
REMARK VINA RESULT:      -6.9      2.342      3.157
REMARK  5 active torsions:
REMARK  status: ('A' for Active; 'I' for Inactive)
REMARK    1  A    between atoms: N1_1  and  S1_2 
REMARK    2  A    between atoms: S1_2  and  C1_5 
REMARK    3  A    between atoms: C4_8  and  N2_9 
REMARK    4  A    between atoms: N2_9  and  C5_10 
REMARK    5  A    between atoms: C5_10  and  C6_11 
ROOT
HETATM    1  C1  UNL     1     -26.404  65.947  24.381  1.00  0.00     0.074 A 
HETATM    2  C2  UNL     1     -26.385  65.336  25.639  1.00  0.00     0.027 A 
HETATM    3  C3  UNL     1     -25.173  65.122  26.303  1.00  0.00     0.031 A 
HETATM    4  C4  UNL     1     -23.955  65.519  25.714  1.00  0.00     0.029 A 
HETATM    5  C11 UNL     1     -23.985  66.114  24.441  1.00  0.00     0.031 A 
HETATM    6  C12 UNL     1     -25.198  66.327  23.780  1.00  0.00     0.027 A 
ENDROOT
BRANCH   4   7
HETATM    7  N2  UNL     1     -22.678  65.316  26.359  1.00  0.00    -0.371 N 
HETATM    8  H5  UNL     1     -22.541  64.397  26.839  1.00  0.00     0.161 HD
BRANCH   7   9
HETATM    9  C5  UNL     1     -21.537  66.257  26.336  1.00  0.00     0.119 C 
HETATM   10  C7  UNL     1     -21.197  66.752  27.754  1.00  0.00     0.042 C 
HETATM   11  C8  UNL     1     -20.784  68.218  27.634  1.00  0.00     0.003 C 
HETATM   12  C9  UNL     1     -21.074  68.651  26.200  1.00  0.00     0.003 C 
HETATM   13  C10 UNL     1     -21.918  67.544  25.589  1.00  0.00     0.042 C 
BRANCH   9  14
HETATM   14  C6  UNL     1     -20.337  65.624  25.655  1.00  0.00     0.202 C 
HETATM   15  O3  UNL     1     -20.426  65.200  24.471  1.00  0.00    -0.646 OA
HETATM   16  O4  UNL     1     -19.114  65.545  26.311  1.00  0.00    -0.646 OA
ENDBRANCH   9  14
ENDBRANCH   7   9
ENDBRANCH   4   7
BRANCH   1  17
HETATM   17  S1  UNL     1     -27.930  66.199  23.541  1.00  0.00     0.239 S 
HETATM   18  O1  UNL     1     -27.669  66.561  22.106  1.00  0.00    -0.206 OA
HETATM   19  O2  UNL     1     -28.688  67.323  24.190  1.00  0.00    -0.206 OA
BRANCH  17  20
HETATM   20  N1  UNL     1     -28.875  64.753  23.607  1.00  0.00    -0.225 NA
HETATM   21  H1  UNL     1     -28.457  64.150  24.351  1.00  0.00     0.136 HD
HETATM   22  H2  UNL     1     -28.735  64.255  22.700  1.00  0.00     0.136 HD
ENDBRANCH  17  20
ENDBRANCH   1  17
TORSDOF 5
ENDMDL
MODEL 5
REMARK VINA RESULT:      -6.9      2.423      3.151
REMARK  5 active torsions:
REMARK  status: ('A' for Active; 'I' for Inactive)
REMARK    1  A    between atoms: N1_1  and  S1_2 
REMARK    2  A    between atoms: S1_2  and  C1_5 
REMARK    3  A    between atoms: C4_8  and  N2_9 
REMARK    4  A    between atoms: N2_9  and  C5_10 
REMARK    5  A    between atoms: C5_10  and  C6_11 
ROOT
HETATM    1  C1  UNL     1     -25.865  66.122  24.505  1.00  0.00     0.074 A 
HETATM    2  C2  UNL     1     -24.482  65.932  24.417  1.00  0.00     0.027 A 
HETATM    3  C3  UNL     1     -23.829  65.068  25.301  1.00  0.00     0.031 A 
HETATM    4  C4  UNL     1     -24.555  64.377  26.292  1.00  0.00     0.029 A 
HETATM    5  C11 UNL     1     -25.940  64.590  26.384  1.00  0.00     0.031 A 
HETATM    6  C12 UNL     1     -26.591  65.454  25.498  1.00  0.00     0.027 A 
ENDROOT
BRANCH   4   7
HETATM    7  N2  UNL     1     -23.924  63.477  27.230  1.00  0.00    -0.371 N 
HETATM    8  H5  UNL     1     -23.603  62.558  26.847  1.00  0.00     0.161 HD
BRANCH   7   9
HETATM    9  C5  UNL     1     -23.634  63.768  28.651  1.00  0.00     0.119 C 
HETATM   10  C7  UNL     1     -23.028  65.174  28.817  1.00  0.00     0.042 C 
HETATM   11  C8  UNL     1     -21.980  65.086  29.925  1.00  0.00     0.003 C 
HETATM   12  C9  UNL     1     -21.813  63.610  30.270  1.00  0.00     0.003 C 
HETATM   13  C10 UNL     1     -22.529  62.838  29.174  1.00  0.00     0.042 C 
BRANCH   9  14
HETATM   14  C6  UNL     1     -24.880  63.585  29.498  1.00  0.00     0.202 C 
HETATM   15  O3  UNL     1     -25.405  62.446  29.623  1.00  0.00    -0.646 OA
HETATM   16  O4  UNL     1     -25.431  64.661  30.185  1.00  0.00    -0.646 OA
ENDBRANCH   9  14
ENDBRANCH   7   9
ENDBRANCH   4   7
BRANCH   1  17
HETATM   17  S1  UNL     1     -26.681  67.224  23.401  1.00  0.00     0.239 S 
HETATM   18  O1  UNL     1     -25.954  68.539  23.362  1.00  0.00    -0.206 OA
HETATM   19  O2  UNL     1     -28.088  67.466  23.872  1.00  0.00    -0.206 OA
BRANCH  17  20
HETATM   20  N1  UNL     1     -26.715  66.537  21.814  1.00  0.00    -0.225 NA
HETATM   21  H1  UNL     1     -25.730  66.290  21.569  1.00  0.00     0.136 HD
HETATM   22  H2  UNL     1     -27.008  67.296  21.160  1.00  0.00     0.136 HD
ENDBRANCH  17  20
ENDBRANCH   1  17
TORSDOF 5
ENDMDL
MODEL 6
REMARK VINA RESULT:      -6.8      1.547      2.789
REMARK  5 active torsions:
REMARK  status: ('A' for Active; 'I' for Inactive)
REMARK    1  A    between atoms: N1_1  and  S1_2 
REMARK    2  A    between atoms: S1_2  and  C1_5 
REMARK    3  A    between atoms: C4_8  and  N2_9 
REMARK    4  A    between atoms: N2_9  and  C5_10 
REMARK    5  A    between atoms: C5_10  and  C6_11 
ROOT
HETATM    1  C1  UNL     1     -25.778  66.061  24.369  1.00  0.00     0.074 A 
HETATM    2  C2  UNL     1     -24.441  65.815  24.037  1.00  0.00     0.027 A 
HETATM    3  C3  UNL     1     -23.665  64.954  24.819  1.00  0.00     0.031 A 
HETATM    4  C4  UNL     1     -24.219  64.322  25.951  1.00  0.00     0.029 A 
HETATM    5  C11 UNL     1     -25.556  64.591  26.286  1.00  0.00     0.031 A 
HETATM    6  C12 UNL     1     -26.330  65.452  25.502  1.00  0.00     0.027 A 
ENDROOT
BRANCH   4   7
HETATM    7  N2  UNL     1     -23.457  63.427  26.791  1.00  0.00    -0.371 N 
HETATM    8  H5  UNL     1     -23.587  62.404  26.618  1.00  0.00     0.161 HD
BRANCH   7   9
HETATM    9  C5  UNL     1     -22.466  63.830  27.813  1.00  0.00     0.119 C 
HETATM   10  C7  UNL     1     -22.728  63.115  29.152  1.00  0.00     0.042 C 
HETATM   11  C8  UNL     1     -22.412  64.112  30.266  1.00  0.00     0.003 C 
HETATM   12  C9  UNL     1     -22.169  65.464  29.604  1.00  0.00     0.003 C 
HETATM   13  C10 UNL     1     -22.632  65.317  28.164  1.00  0.00     0.042 C 
BRANCH   9  14
HETATM   14  C6  UNL     1     -21.054  63.593  27.311  1.00  0.00     0.202 C 
HETATM   15  O3  UNL     1     -20.265  62.848  27.952  1.00  0.00    -0.646 OA
HETATM   16  O4  UNL     1     -20.628  64.156  26.113  1.00  0.00    -0.646 OA
ENDBRANCH   9  14
ENDBRANCH   7   9
ENDBRANCH   4   7
BRANCH   1  17
HETATM   17  S1  UNL     1     -26.746  67.160  23.392  1.00  0.00     0.239 S 
HETATM   18  O1  UNL     1     -26.055  68.489  23.283  1.00  0.00    -0.206 OA
HETATM   19  O2  UNL     1     -28.087  67.366  24.039  1.00  0.00    -0.206 OA
BRANCH  17  20
HETATM   20  N1  UNL     1     -26.964  66.492  21.812  1.00  0.00    -0.225 NA
HETATM   21  H1  UNL     1     -26.023  66.188  21.477  1.00  0.00     0.136 HD
HETATM   22  H2  UNL     1     -27.269  67.274  21.191  1.00  0.00     0.136 HD
ENDBRANCH  17  20
ENDBRANCH   1  17
TORSDOF 5
ENDMDL
MODEL 7
REMARK VINA RESULT:      -6.8      3.076      3.715
REMARK  5 active torsions:
REMARK  status: ('A' for Active; 'I' for Inactive)
REMARK    1  A    between atoms: N1_1  and  S1_2 
REMARK    2  A    between atoms: S1_2  and  C1_5 
REMARK    3  A    between atoms: C4_8  and  N2_9 
REMARK    4  A    between atoms: N2_9  and  C5_10 
REMARK    5  A    between atoms: C5_10  and  C6_11 
ROOT
HETATM    1  C1  UNL     1     -25.643  63.567  27.204  1.00  0.00     0.074 A 
HETATM    2  C2  UNL     1     -25.425  64.655  26.352  1.00  0.00     0.027 A 
HETATM    3  C3  UNL     1     -24.155  64.890  25.816  1.00  0.00     0.031 A 
HETATM    4  C4  UNL     1     -23.079  64.034  26.126  1.00  0.00     0.029 A 
HETATM    5  C11 UNL     1     -23.305  62.956  26.998  1.00  0.00     0.031 A 
HETATM    6  C12 UNL     1     -24.576  62.724  27.532  1.00  0.00     0.027 A 
ENDROOT
BRANCH   4   7
HETATM    7  N2  UNL     1     -21.749  64.237  25.599  1.00  0.00    -0.371 N 
HETATM    8  H5  UNL     1     -21.241  65.088  25.935  1.00  0.00     0.161 HD
BRANCH   7   9
HETATM    9  C5  UNL     1     -21.026  63.319  24.693  1.00  0.00     0.119 C 
HETATM   10  C7  UNL     1     -20.053  64.090  23.782  1.00  0.00     0.042 C 
HETATM   11  C8  UNL     1     -20.073  63.403  22.416  1.00  0.00     0.003 C 
HETATM   12  C9  UNL     1     -21.195  62.371  22.449  1.00  0.00     0.003 C 
HETATM   13  C10 UNL     1     -22.002  62.665  23.702  1.00  0.00     0.042 C 
BRANCH   9  14
HETATM   14  C6  UNL     1     -20.321  62.233  25.485  1.00  0.00     0.202 C 
HETATM   15  O3  UNL     1     -20.309  61.044  25.068  1.00  0.00    -0.646 OA
HETATM   16  O4  UNL     1     -19.639  62.544  26.657  1.00  0.00    -0.646 OA
ENDBRANCH   9  14
ENDBRANCH   7   9
ENDBRANCH   4   7
BRANCH   1  17
HETATM   17  S1  UNL     1     -27.240  63.285  27.891  1.00  0.00     0.239 S 
HETATM   18  O1  UNL     1     -27.461  64.202  29.061  1.00  0.00    -0.206 OA
HETATM   19  O2  UNL     1     -27.344  61.863  28.367  1.00  0.00    -0.206 OA
BRANCH  17  20
HETATM   20  N1  UNL     1     -28.448  63.581  26.690  1.00  0.00    -0.225 NA
HETATM   21  H1  UNL     1     -27.959  63.974  25.856  1.00  0.00     0.136 HD
HETATM   22  H2  UNL     1     -29.068  64.336  27.061  1.00  0.00     0.136 HD
ENDBRANCH  17  20
ENDBRANCH   1  17
TORSDOF 5
ENDMDL
MODEL 8
REMARK VINA RESULT:      -6.7      2.753      3.473
REMARK  5 active torsions:
REMARK  status: ('A' for Active; 'I' for Inactive)
REMARK    1  A    between atoms: N1_1  and  S1_2 
REMARK    2  A    between atoms: S1_2  and  C1_5 
REMARK    3  A    between atoms: C4_8  and  N2_9 
REMARK    4  A    between atoms: N2_9  and  C5_10 
REMARK    5  A    between atoms: C5_10  and  C6_11 
ROOT
HETATM    1  C1  UNL     1     -26.431  64.289  26.704  1.00  0.00     0.074 A 
HETATM    2  C2  UNL     1     -25.936  65.331  25.913  1.00  0.00     0.027 A 
HETATM    3  C3  UNL     1     -24.558  65.511  25.760  1.00  0.00     0.031 A 
HETATM    4  C4  UNL     1     -23.649  64.645  26.401  1.00  0.00     0.029 A 
HETATM    5  C11 UNL     1     -24.157  63.613  27.208  1.00  0.00     0.031 A 
HETATM    6  C12 UNL     1     -25.535  63.436  27.359  1.00  0.00     0.027 A 
ENDROOT
BRANCH   4   7
HETATM    7  N2  UNL     1     -22.217  64.791  26.276  1.00  0.00    -0.371 N 
HETATM    8  H5  UNL     1     -21.760  65.464  26.934  1.00  0.00     0.161 HD
BRANCH   7   9
HETATM    9  C5  UNL     1     -21.344  64.028  25.358  1.00  0.00     0.119 C 
HETATM   10  C7  UNL     1     -22.129  63.531  24.130  1.00  0.00     0.042 C 
HETATM   11  C8  UNL     1     -21.587  62.146  23.778  1.00  0.00     0.003 C 
HETATM   12  C9  UNL     1     -20.643  61.734  24.902  1.00  0.00     0.003 C 
HETATM   13  C10 UNL     1     -20.867  62.730  26.028  1.00  0.00     0.042 C 
BRANCH   9  14
HETATM   14  C6  UNL     1     -20.135  64.855  24.961  1.00  0.00     0.202 C 
HETATM   15  O3  UNL     1     -19.153  64.966  25.744  1.00  0.00    -0.646 OA
HETATM   16  O4  UNL     1     -20.074  65.462  23.712  1.00  0.00    -0.646 OA
ENDBRANCH   9  14
ENDBRANCH   7   9
ENDBRANCH   4   7
BRANCH   1  17
HETATM   17  S1  UNL     1     -28.167  64.077  26.907  1.00  0.00     0.239 S 
HETATM   18  O1  UNL     1     -28.784  63.652  25.605  1.00  0.00    -0.206 OA
HETATM   19  O2  UNL     1     -28.791  65.376  27.335  1.00  0.00    -0.206 OA
BRANCH  17  20
HETATM   20  N1  UNL     1     -28.467  62.870  28.108  1.00  0.00    -0.225 NA
HETATM   21  H1  UNL     1     -29.261  63.213  28.693  1.00  0.00     0.136 HD
HETATM   22  H2  UNL     1     -27.626  62.840  28.727  1.00  0.00     0.136 HD
ENDBRANCH  17  20
ENDBRANCH   1  17
TORSDOF 5
ENDMDL
MODEL 9
REMARK VINA RESULT:      -6.7      6.995      9.344
REMARK  5 active torsions:
REMARK  status: ('A' for Active; 'I' for Inactive)
REMARK    1  A    between atoms: N1_1  and  S1_2 
REMARK    2  A    between atoms: S1_2  and  C1_5 
REMARK    3  A    between atoms: C4_8  and  N2_9 
REMARK    4  A    between atoms: N2_9  and  C5_10 
REMARK    5  A    between atoms: C5_10  and  C6_11 
ROOT
HETATM    1  C1  UNL     1     -15.266  65.240  20.731  1.00  0.00     0.074 A 
HETATM    2  C2  UNL     1     -15.612  66.086  21.790  1.00  0.00     0.027 A 
HETATM    3  C3  UNL     1     -16.900  66.047  22.334  1.00  0.00     0.031 A 
HETATM    4  C4  UNL     1     -17.865  65.155  21.823  1.00  0.00     0.029 A 
HETATM    5  C11 UNL     1     -17.512  64.325  20.747  1.00  0.00     0.031 A 
HETATM    6  C12 UNL     1     -16.224  64.366  20.205  1.00  0.00     0.027 A 
ENDROOT
BRANCH   4   7
HETATM    7  N2  UNL     1     -19.208  65.081  22.350  1.00  0.00    -0.371 N 
HETATM    8  H5  UNL     1     -19.856  65.856  22.081  1.00  0.00     0.161 HD
BRANCH   7   9
HETATM    9  C5  UNL     1     -19.759  63.978  23.168  1.00  0.00     0.119 C 
HETATM   10  C7  UNL     1     -20.503  62.954  22.291  1.00  0.00     0.042 C 
HETATM   11  C8  UNL     1     -21.713  62.470  23.090  1.00  0.00     0.003 C 
HETATM   12  C9  UNL     1     -21.807  63.344  24.336  1.00  0.00     0.003 C 
HETATM   13  C10 UNL     1     -20.852  64.504  24.111  1.00  0.00     0.042 C 
BRANCH   9  14
HETATM   14  C6  UNL     1     -18.663  63.327  23.993  1.00  0.00     0.202 C 
HETATM   15  O3  UNL     1     -18.247  63.876  25.048  1.00  0.00    -0.646 OA
HETATM   16  O4  UNL     1     -18.137  62.095  23.620  1.00  0.00    -0.646 OA
ENDBRANCH   9  14
ENDBRANCH   7   9
ENDBRANCH   4   7
BRANCH   1  17
HETATM   17  S1  UNL     1     -13.649  65.304  20.037  1.00  0.00     0.239 S 
HETATM   18  O1  UNL     1     -12.666  64.663  20.976  1.00  0.00    -0.206 OA
HETATM   19  O2  UNL     1     -13.245  66.736  19.822  1.00  0.00    -0.206 OA
BRANCH  17  20
HETATM   20  N1  UNL     1     -13.633  64.467  18.524  1.00  0.00    -0.225 NA
HETATM   21  H1  UNL     1     -12.653  64.139  18.369  1.00  0.00     0.136 HD
HETATM   22  H2  UNL     1     -13.835  65.174  17.783  1.00  0.00     0.136 HD
ENDBRANCH  17  20
ENDBRANCH   1  17
TORSDOF 5
ENDMDL
