MODEL 1
REMARK VINA RESULT:      -6.9      0.000      0.000
REMARK  3 active torsions:
REMARK  status: ('A' for Active; 'I' for Inactive)
REMARK    1  A    between atoms: C1_3  and  N2_4 
REMARK    2  A    between atoms: C1_3  and  O1_16 
REMARK    3  A    between atoms: N2_4  and  N3_5 
ROOT
HETATM    1  N3  UNL     1     -25.276  65.872  23.861  1.00  0.00    -0.155 NA
HETATM    2  C2  UNL     1     -24.500  65.633  24.869  1.00  0.00     0.040 C 
HETATM    3  C3  UNL     1     -24.934  65.136  26.232  1.00  0.00     0.062 C 
HETATM    4  C4  UNL     1     -23.540  64.765  26.818  1.00  0.00    -0.003 C 
HETATM    5  C5  UNL     1     -22.771  66.005  26.339  1.00  0.00     0.016 C 
HETATM    6  C6  UNL     1     -22.997  65.743  24.839  1.00  0.00     0.044 C 
HETATM    7  C7  UNL     1     -22.300  64.368  24.803  1.00  0.00     0.022 C 
HETATM    8  C8  UNL     1     -22.061  63.272  23.835  1.00  0.00    -0.025 C 
HETATM    9  C9  UNL     1     -21.771  62.185  24.588  1.00  0.00    -0.030 C 
HETATM   10  C10 UNL     1     -22.052  62.435  26.075  1.00  0.00     0.032 C 
HETATM   11  C11 UNL     1     -22.999  63.609  25.909  1.00  0.00     0.002 C 
ENDROOT
BRANCH   1  12
HETATM   12  N2  UNL     1     -26.665  65.716  23.958  1.00  0.00    -0.104 NA
BRANCH  12  13
HETATM   13  C1  UNL     1     -27.543  66.449  23.106  1.00  0.00     0.277 C 
HETATM   14  N1  UNL     1     -28.640  66.943  23.579  1.00  0.00    -0.259 NA
HETATM   15  H1  UNL     1     -28.903  66.818  24.583  1.00  0.00     0.190 HD
BRANCH  13  16
HETATM   16  O1  UNL     1     -27.219  66.632  21.764  1.00  0.00    -0.329 OA
HETATM   17  H14 UNL     1     -26.271  66.503  21.432  1.00  0.00     0.221 HD
ENDBRANCH  13  16
ENDBRANCH  12  13
ENDBRANCH   1  12
TORSDOF 3
ENDMDL
MODEL 2
REMARK VINA RESULT:      -6.8      3.979      5.164
REMARK  3 active torsions:
REMARK  status: ('A' for Active; 'I' for Inactive)
REMARK    1  A    between atoms: C1_3  and  N2_4 
REMARK    2  A    between atoms: C1_3  and  O1_16 
REMARK    3  A    between atoms: N2_4  and  N3_5 
ROOT
HETATM    1  N3  UNL     1     -21.877  62.702  24.586  1.00  0.00    -0.155 NA
HETATM    2  C2  UNL     1     -22.549  63.664  25.133  1.00  0.00     0.040 C 
HETATM    3  C3  UNL     1     -23.494  64.610  24.423  1.00  0.00     0.062 C 
HETATM    4  C4  UNL     1     -24.176  65.260  25.662  1.00  0.00    -0.003 C 
HETATM    5  C5  UNL     1     -22.915  65.465  26.515  1.00  0.00     0.016 C 
HETATM    6  C6  UNL     1     -22.560  63.970  26.609  1.00  0.00     0.044 C 
HETATM    7  C7  UNL     1     -23.868  63.531  27.298  1.00  0.00     0.022 C 
HETATM    8  C8  UNL     1     -24.523  62.277  27.734  1.00  0.00    -0.025 C 
HETATM    9  C9  UNL     1     -25.836  62.581  27.860  1.00  0.00    -0.030 C 
HETATM   10  C10 UNL     1     -26.155  63.961  27.273  1.00  0.00     0.032 C 
HETATM   11  C11 UNL     1     -24.934  64.092  26.382  1.00  0.00     0.002 C 
ENDROOT
BRANCH   1  12
HETATM   12  N2  UNL     1     -21.943  62.460  23.208  1.00  0.00    -0.104 NA
BRANCH  12  13
HETATM   13  C1  UNL     1     -20.768  62.135  22.468  1.00  0.00     0.277 C 
HETATM   14  N1  UNL     1     -20.469  62.805  21.402  1.00  0.00    -0.259 NA
HETATM   15  H1  UNL     1     -21.074  63.588  21.066  1.00  0.00     0.190 HD
BRANCH  13  16
HETATM   16  O1  UNL     1     -19.942  61.097  22.890  1.00  0.00    -0.329 OA
HETATM   17  H14 UNL     1     -20.028  60.705  23.821  1.00  0.00     0.221 HD
ENDBRANCH  13  16
ENDBRANCH  12  13
ENDBRANCH   1  12
TORSDOF 3
ENDMDL
MODEL 3
REMARK VINA RESULT:      -6.8      3.818      5.345
REMARK  3 active torsions:
REMARK  status: ('A' for Active; 'I' for Inactive)
REMARK    1  A    between atoms: C1_3  and  N2_4 
REMARK    2  A    between atoms: C1_3  and  O1_16 
REMARK    3  A    between atoms: N2_4  and  N3_5 
ROOT
HETATM    1  N3  UNL     1     -21.553  67.396  25.420  1.00  0.00    -0.155 NA
HETATM    2  C2  UNL     1     -22.158  66.294  25.731  1.00  0.00     0.040 C 
HETATM    3  C3  UNL     1     -22.471  65.810  27.131  1.00  0.00     0.062 C 
HETATM    4  C4  UNL     1     -23.449  64.651  26.783  1.00  0.00    -0.003 C 
HETATM    5  C5  UNL     1     -22.662  64.054  25.608  1.00  0.00     0.016 C 
HETATM    6  C6  UNL     1     -22.728  65.318  24.732  1.00  0.00     0.044 C 
HETATM    7  C7  UNL     1     -24.266  65.384  24.649  1.00  0.00     0.022 C 
HETATM    8  C8  UNL     1     -25.309  66.280  24.099  1.00  0.00    -0.025 C 
HETATM    9  C9  UNL     1     -26.444  65.962  24.765  1.00  0.00    -0.030 C 
HETATM   10  C10 UNL     1     -26.162  65.034  25.952  1.00  0.00     0.032 C 
HETATM   11  C11 UNL     1     -24.683  65.337  26.102  1.00  0.00     0.002 C 
ENDROOT
BRANCH   1  12
HETATM   12  N2  UNL     1     -21.078  68.268  26.407  1.00  0.00    -0.104 NA
BRANCH  12  13
HETATM   13  C1  UNL     1     -19.956  69.113  26.156  1.00  0.00     0.277 C 
HETATM   14  N1  UNL     1     -19.948  70.326  26.604  1.00  0.00    -0.259 NA
HETATM   15  H1  UNL     1     -20.751  70.709  27.152  1.00  0.00     0.190 HD
BRANCH  13  16
HETATM   16  O1  UNL     1     -18.871  68.632  25.429  1.00  0.00    -0.329 OA
HETATM   17  H14 UNL     1     -18.889  68.607  24.416  1.00  0.00     0.221 HD
ENDBRANCH  13  16
ENDBRANCH  12  13
ENDBRANCH   1  12
TORSDOF 3
ENDMDL
MODEL 4
REMARK VINA RESULT:      -6.5      1.574      2.616
REMARK  3 active torsions:
REMARK  status: ('A' for Active; 'I' for Inactive)
REMARK    1  A    between atoms: C1_3  and  N2_4 
REMARK    2  A    between atoms: C1_3  and  O1_16 
REMARK    3  A    between atoms: N2_4  and  N3_5 
ROOT
HETATM    1  N3  UNL     1     -24.819  65.434  23.927  1.00  0.00    -0.155 NA
HETATM    2  C2  UNL     1     -23.857  65.248  24.773  1.00  0.00     0.040 C 
HETATM    3  C3  UNL     1     -23.126  66.327  25.545  1.00  0.00     0.062 C 
HETATM    4  C4  UNL     1     -22.368  65.431  26.568  1.00  0.00    -0.003 C 
HETATM    5  C5  UNL     1     -21.914  64.333  25.594  1.00  0.00     0.016 C 
HETATM    6  C6  UNL     1     -23.336  63.898  25.195  1.00  0.00     0.044 C 
HETATM    7  C7  UNL     1     -23.794  63.501  26.613  1.00  0.00     0.022 C 
HETATM    8  C8  UNL     1     -25.027  63.039  27.290  1.00  0.00    -0.025 C 
HETATM    9  C9  UNL     1     -24.837  63.305  28.604  1.00  0.00    -0.030 C 
HETATM   10  C10 UNL     1     -23.599  64.180  28.831  1.00  0.00     0.032 C 
HETATM   11  C11 UNL     1     -23.484  64.740  27.425  1.00  0.00     0.002 C 
ENDROOT
BRANCH   1  12
HETATM   12  N2  UNL     1     -25.270  66.721  23.608  1.00  0.00    -0.104 NA
BRANCH  12  13
HETATM   13  C1  UNL     1     -26.542  66.918  22.993  1.00  0.00     0.277 C 
HETATM   14  N1  UNL     1     -26.682  66.719  21.722  1.00  0.00    -0.259 NA
HETATM   15  H1  UNL     1     -25.879  66.415  21.128  1.00  0.00     0.190 HD
BRANCH  13  16
HETATM   16  O1  UNL     1     -27.632  67.324  23.758  1.00  0.00    -0.329 OA
HETATM   17  H14 UNL     1     -27.590  68.164  24.323  1.00  0.00     0.221 HD
ENDBRANCH  13  16
ENDBRANCH  12  13
ENDBRANCH   1  12
TORSDOF 3
ENDMDL
MODEL 5
REMARK VINA RESULT:      -6.3      3.440      4.186
REMARK  3 active torsions:
REMARK  status: ('A' for Active; 'I' for Inactive)
REMARK    1  A    between atoms: C1_3  and  N2_4 
REMARK    2  A    between atoms: C1_3  and  O1_16 
REMARK    3  A    between atoms: N2_4  and  N3_5 
ROOT
HETATM    1  N3  UNL     1     -26.264  64.340  28.985  1.00  0.00    -0.155 NA
HETATM    2  C2  UNL     1     -25.191  63.786  28.518  1.00  0.00     0.040 C 
HETATM    3  C3  UNL     1     -25.078  62.379  27.970  1.00  0.00     0.062 C 
HETATM    4  C4  UNL     1     -23.672  62.481  27.309  1.00  0.00    -0.003 C 
HETATM    5  C5  UNL     1     -22.959  63.238  28.440  1.00  0.00     0.016 C 
HETATM    6  C6  UNL     1     -23.862  64.483  28.370  1.00  0.00     0.044 C 
HETATM    7  C7  UNL     1     -23.538  64.843  26.906  1.00  0.00     0.022 C 
HETATM    8  C8  UNL     1     -23.966  65.828  25.887  1.00  0.00    -0.025 C 
HETATM    9  C9  UNL     1     -23.599  65.297  24.697  1.00  0.00    -0.030 C 
HETATM   10  C10 UNL     1     -23.150  63.838  24.843  1.00  0.00     0.032 C 
HETATM   11  C11 UNL     1     -23.821  63.550  26.173  1.00  0.00     0.002 C 
ENDROOT
BRANCH   1  12
HETATM   12  N2  UNL     1     -27.473  63.635  29.061  1.00  0.00    -0.104 NA
BRANCH  12  13
HETATM   13  C1  UNL     1     -28.571  63.978  28.219  1.00  0.00     0.277 C 
HETATM   14  N1  UNL     1     -29.555  64.673  28.690  1.00  0.00    -0.259 NA
HETATM   15  H1  UNL     1     -29.566  64.993  29.685  1.00  0.00     0.190 HD
BRANCH  13  16
HETATM   16  O1  UNL     1     -28.586  63.565  26.889  1.00  0.00    -0.329 OA
HETATM   17  H14 UNL     1     -28.136  62.702  26.604  1.00  0.00     0.221 HD
ENDBRANCH  13  16
ENDBRANCH  12  13
ENDBRANCH   1  12
TORSDOF 3
ENDMDL
MODEL 6
REMARK VINA RESULT:      -6.2      3.015      4.505
REMARK  3 active torsions:
REMARK  status: ('A' for Active; 'I' for Inactive)
REMARK    1  A    between atoms: C1_3  and  N2_4 
REMARK    2  A    between atoms: C1_3  and  O1_16 
REMARK    3  A    between atoms: N2_4  and  N3_5 
ROOT
HETATM    1  N3  UNL     1     -27.536  64.328  26.271  1.00  0.00    -0.155 NA
HETATM    2  C2  UNL     1     -26.416  63.987  26.826  1.00  0.00     0.040 C 
HETATM    3  C3  UNL     1     -25.112  64.753  26.748  1.00  0.00     0.062 C 
HETATM    4  C4  UNL     1     -24.315  64.002  27.854  1.00  0.00    -0.003 C 
HETATM    5  C5  UNL     1     -24.727  62.570  27.478  1.00  0.00     0.016 C 
HETATM    6  C6  UNL     1     -26.233  62.787  27.719  1.00  0.00     0.044 C 
HETATM    7  C7  UNL     1     -26.111  63.166  29.208  1.00  0.00     0.022 C 
HETATM    8  C8  UNL     1     -26.988  63.627  30.309  1.00  0.00    -0.025 C 
HETATM    9  C9  UNL     1     -26.158  64.187  31.219  1.00  0.00    -0.030 C 
HETATM   10  C10 UNL     1     -24.739  64.357  30.663  1.00  0.00     0.032 C 
HETATM   11  C11 UNL     1     -25.088  64.281  29.188  1.00  0.00     0.002 C 
ENDROOT
BRANCH   1  12
HETATM   12  N2  UNL     1     -27.636  65.478  25.479  1.00  0.00    -0.104 NA
BRANCH  12  13
HETATM   13  C1  UNL     1     -28.398  65.470  24.273  1.00  0.00     0.277 C 
HETATM   14  N1  UNL     1     -29.063  64.413  23.936  1.00  0.00    -0.259 NA
HETATM   15  H1  UNL     1     -29.056  63.554  24.532  1.00  0.00     0.190 HD
BRANCH  13  16
HETATM   16  O1  UNL     1     -28.427  66.599  23.459  1.00  0.00    -0.329 OA
HETATM   17  H14 UNL     1     -28.985  66.620  22.613  1.00  0.00     0.221 HD
ENDBRANCH  13  16
ENDBRANCH  12  13
ENDBRANCH   1  12
TORSDOF 3
ENDMDL
MODEL 7
REMARK VINA RESULT:      -6.2      1.811      2.938
REMARK  3 active torsions:
REMARK  status: ('A' for Active; 'I' for Inactive)
REMARK    1  A    between atoms: C1_3  and  N2_4 
REMARK    2  A    between atoms: C1_3  and  O1_16 
REMARK    3  A    between atoms: N2_4  and  N3_5 
ROOT
HETATM    1  N3  UNL     1     -24.703  66.124  25.159  1.00  0.00    -0.155 NA
HETATM    2  C2  UNL     1     -24.240  65.032  25.677  1.00  0.00     0.040 C 
HETATM    3  C3  UNL     1     -23.459  63.958  24.948  1.00  0.00     0.062 C 
HETATM    4  C4  UNL     1     -22.953  63.142  26.172  1.00  0.00    -0.003 C 
HETATM    5  C5  UNL     1     -24.260  63.137  26.980  1.00  0.00     0.016 C 
HETATM    6  C6  UNL     1     -24.337  64.667  27.137  1.00  0.00     0.044 C 
HETATM    7  C7  UNL     1     -22.996  64.826  27.881  1.00  0.00     0.022 C 
HETATM    8  C8  UNL     1     -22.137  65.918  28.395  1.00  0.00    -0.025 C 
HETATM    9  C9  UNL     1     -20.908  65.370  28.541  1.00  0.00    -0.030 C 
HETATM   10  C10 UNL     1     -20.828  63.981  27.897  1.00  0.00     0.032 C 
HETATM   11  C11 UNL     1     -22.020  64.117  26.968  1.00  0.00     0.002 C 
ENDROOT
BRANCH   1  12
HETATM   12  N2  UNL     1     -24.545  66.408  23.797  1.00  0.00    -0.104 NA
BRANCH  12  13
HETATM   13  C1  UNL     1     -25.556  67.110  23.076  1.00  0.00     0.277 C 
HETATM   14  N1  UNL     1     -26.323  66.473  22.252  1.00  0.00    -0.259 NA
HETATM   15  H1  UNL     1     -26.220  65.444  22.099  1.00  0.00     0.190 HD
BRANCH  13  16
HETATM   16  O1  UNL     1     -25.718  68.481  23.258  1.00  0.00    -0.329 OA
HETATM   17  H14 UNL     1     -26.637  68.907  23.235  1.00  0.00     0.221 HD
ENDBRANCH  13  16
ENDBRANCH  12  13
ENDBRANCH   1  12
TORSDOF 3
ENDMDL
MODEL 8
REMARK VINA RESULT:      -6.1      3.522      4.949
REMARK  3 active torsions:
REMARK  status: ('A' for Active; 'I' for Inactive)
REMARK    1  A    between atoms: C1_3  and  N2_4 
REMARK    2  A    between atoms: C1_3  and  O1_16 
REMARK    3  A    between atoms: N2_4  and  N3_5 
ROOT
HETATM    1  N3  UNL     1     -22.856  63.432  23.524  1.00  0.00    -0.155 NA
HETATM    2  C2  UNL     1     -23.144  63.776  24.738  1.00  0.00     0.040 C 
HETATM    3  C3  UNL     1     -22.705  63.059  25.998  1.00  0.00     0.062 C 
HETATM    4  C4  UNL     1     -23.097  64.137  27.049  1.00  0.00    -0.003 C 
HETATM    5  C5  UNL     1     -24.468  64.514  26.467  1.00  0.00     0.016 C 
HETATM    6  C6  UNL     1     -23.919  65.012  25.118  1.00  0.00     0.044 C 
HETATM    7  C7  UNL     1     -23.023  66.122  25.701  1.00  0.00     0.022 C 
HETATM    8  C8  UNL     1     -22.029  67.110  25.222  1.00  0.00    -0.025 C 
HETATM    9  C9  UNL     1     -21.314  67.460  26.317  1.00  0.00    -0.030 C 
HETATM   10  C10 UNL     1     -21.619  66.546  27.509  1.00  0.00     0.032 C 
HETATM   11  C11 UNL     1     -22.196  65.380  26.729  1.00  0.00     0.002 C 
ENDROOT
BRANCH   1  12
HETATM   12  N2  UNL     1     -22.101  62.284  23.252  1.00  0.00    -0.104 NA
BRANCH  12  13
HETATM   13  C1  UNL     1     -20.791  62.386  22.699  1.00  0.00     0.277 C 
HETATM   14  N1  UNL     1     -20.133  63.496  22.795  1.00  0.00    -0.259 NA
HETATM   15  H1  UNL     1     -20.543  64.330  23.273  1.00  0.00     0.190 HD
BRANCH  13  16
HETATM   16  O1  UNL     1     -20.218  61.292  22.056  1.00  0.00    -0.329 OA
HETATM   17  H14 UNL     1     -19.994  61.324  21.068  1.00  0.00     0.221 HD
ENDBRANCH  13  16
ENDBRANCH  12  13
ENDBRANCH   1  12
TORSDOF 3
ENDMDL
MODEL 9
REMARK VINA RESULT:      -6.1      4.262      5.382
REMARK  3 active torsions:
REMARK  status: ('A' for Active; 'I' for Inactive)
REMARK    1  A    between atoms: C1_3  and  N2_4 
REMARK    2  A    between atoms: C1_3  and  O1_16 
REMARK    3  A    between atoms: N2_4  and  N3_5 
ROOT
HETATM    1  N3  UNL     1     -20.507  63.448  25.632  1.00  0.00    -0.155 NA
HETATM    2  C2  UNL     1     -21.164  64.559  25.740  1.00  0.00     0.040 C 
HETATM    3  C3  UNL     1     -21.408  65.564  24.633  1.00  0.00     0.062 C 
HETATM    4  C4  UNL     1     -22.489  66.442  25.328  1.00  0.00    -0.003 C 
HETATM    5  C5  UNL     1     -21.833  66.532  26.714  1.00  0.00     0.016 C 
HETATM    6  C6  UNL     1     -21.873  65.017  26.989  1.00  0.00     0.044 C 
HETATM    7  C7  UNL     1     -23.404  64.870  26.893  1.00  0.00     0.022 C 
HETATM    8  C8  UNL     1     -24.418  63.791  26.929  1.00  0.00    -0.025 C 
HETATM    9  C9  UNL     1     -25.522  64.315  26.345  1.00  0.00    -0.030 C 
HETATM   10  C10 UNL     1     -25.221  65.658  25.670  1.00  0.00     0.032 C 
HETATM   11  C11 UNL     1     -23.718  65.495  25.551  1.00  0.00     0.002 C 
ENDROOT
BRANCH   1  12
HETATM   12  N2  UNL     1     -19.901  63.075  24.426  1.00  0.00    -0.104 NA
BRANCH  12  13
HETATM   13  C1  UNL     1     -20.387  61.961  23.680  1.00  0.00     0.277 C 
HETATM   14  N1  UNL     1     -21.652  61.850  23.432  1.00  0.00    -0.259 NA
HETATM   15  H1  UNL     1     -22.335  62.565  23.768  1.00  0.00     0.190 HD
BRANCH  13  16
HETATM   16  O1  UNL     1     -19.500  60.991  23.219  1.00  0.00    -0.329 OA
HETATM   17  H14 UNL     1     -18.524  61.209  23.058  1.00  0.00     0.221 HD
ENDBRANCH  13  16
ENDBRANCH  12  13
ENDBRANCH   1  12
TORSDOF 3
ENDMDL
