MODEL 1
REMARK VINA RESULT:      -7.7      0.000      0.000
REMARK  3 active torsions:
REMARK  status: ('A' for Active; 'I' for Inactive)
REMARK    1  A    between atoms: C4_4  and  C5_5 
REMARK    2  A    between atoms: C5_5  and  N1_6 
REMARK    3  A    between atoms: N1_6  and  C6_7 
ROOT
HETATM    1  C6  UNL     1     -27.984  63.922  27.505  1.00  0.00     0.160 A 
HETATM    2  N2  UNL     1     -28.996  64.481  28.237  1.00  0.00    -0.216 NA
HETATM    3  C7  UNL     1     -29.021  64.405  29.606  1.00  0.00     0.103 A 
HETATM    4  C8  UNL     1     -30.142  65.045  30.360  1.00  0.00     0.091 C 
HETATM    5  N3  UNL     1     -28.010  63.773  30.280  1.00  0.00    -0.330 N 
HETATM    6  H9  UNL     1     -28.009  63.716  31.322  1.00  0.00     0.168 HD
HETATM    7  C9  UNL     1     -27.002  63.220  29.559  1.00  0.00     0.120 A 
HETATM    8  C10 UNL     1     -26.967  63.278  28.200  1.00  0.00     0.057 A 
HETATM    9  C11 UNL     1     -25.824  62.624  27.790  1.00  0.00     0.036 A 
HETATM   10  C12 UNL     1     -25.214  62.194  28.967  1.00  0.00     0.091 A 
HETATM   11  N4  UNL     1     -25.940  62.563  30.049  1.00  0.00    -0.351 N 
HETATM   12  H12 UNL     1     -25.719  62.373  31.052  1.00  0.00     0.166 HD
ENDROOT
BRANCH   1  13
HETATM   13  N1  UNL     1     -27.968  63.987  26.207  1.00  0.00    -0.266 NA
BRANCH  13  14
HETATM   14  C5  UNL     1     -28.366  65.159  25.426  1.00  0.00     0.189 C 
BRANCH  14  15
HETATM   15  C4  UNL     1     -27.160  65.840  24.836  1.00  0.00    -0.038 A 
HETATM   16  C3  UNL     1     -27.298  66.736  23.762  1.00  0.00     0.009 A 
HETATM   17  C2  UNL     1     -26.169  67.345  23.204  1.00  0.00     0.001 A 
HETATM   18  C1  UNL     1     -24.898  67.065  23.714  1.00  0.00     0.000 A 
HETATM   19  C14 UNL     1     -24.753  66.173  24.780  1.00  0.00     0.001 A 
HETATM   20  C13 UNL     1     -25.879  65.561  25.340  1.00  0.00     0.009 A 
ENDBRANCH  14  15
ENDBRANCH  13  14
ENDBRANCH   1  13
TORSDOF 3
ENDMDL
MODEL 2
REMARK VINA RESULT:      -7.6      2.689      4.420
REMARK  3 active torsions:
REMARK  status: ('A' for Active; 'I' for Inactive)
REMARK    1  A    between atoms: C4_4  and  C5_5 
REMARK    2  A    between atoms: C5_5  and  N1_6 
REMARK    3  A    between atoms: N1_6  and  C6_7 
ROOT
HETATM    1  C6  UNL     1     -26.166  65.127  25.910  1.00  0.00     0.160 A 
HETATM    2  N2  UNL     1     -27.050  65.658  25.010  1.00  0.00    -0.216 NA
HETATM    3  C7  UNL     1     -28.371  65.291  24.995  1.00  0.00     0.103 A 
HETATM    4  C8  UNL     1     -29.298  65.911  24.001  1.00  0.00     0.091 C 
HETATM    5  N3  UNL     1     -28.844  64.384  25.907  1.00  0.00    -0.330 N 
HETATM    6  H9  UNL     1     -29.849  64.103  25.916  1.00  0.00     0.168 HD
HETATM    7  C9  UNL     1     -27.973  63.857  26.803  1.00  0.00     0.120 A 
HETATM    8  C10 UNL     1     -26.657  64.203  26.825  1.00  0.00     0.057 A 
HETATM    9  C11 UNL     1     -26.061  63.492  27.845  1.00  0.00     0.036 A 
HETATM   10  C12 UNL     1     -27.089  62.730  28.400  1.00  0.00     0.091 A 
HETATM   11  N4  UNL     1     -28.259  62.959  27.758  1.00  0.00    -0.351 N 
HETATM   12  H12 UNL     1     -29.186  62.525  27.963  1.00  0.00     0.166 HD
ENDROOT
BRANCH   1  13
HETATM   13  N1  UNL     1     -24.912  65.470  25.915  1.00  0.00    -0.266 NA
BRANCH  13  14
HETATM   14  C5  UNL     1     -24.018  65.378  24.760  1.00  0.00     0.189 C 
BRANCH  14  15
HETATM   15  C4  UNL     1     -23.136  64.163  24.866  1.00  0.00    -0.038 A 
HETATM   16  C3  UNL     1     -22.734  63.679  26.123  1.00  0.00     0.009 A 
HETATM   17  C2  UNL     1     -21.894  62.563  26.211  1.00  0.00     0.001 A 
HETATM   18  C1  UNL     1     -21.451  61.926  25.049  1.00  0.00     0.000 A 
HETATM   19  C14 UNL     1     -21.844  62.404  23.796  1.00  0.00     0.001 A 
HETATM   20  C13 UNL     1     -22.682  63.519  23.703  1.00  0.00     0.009 A 
ENDBRANCH  14  15
ENDBRANCH  13  14
ENDBRANCH   1  13
TORSDOF 3
ENDMDL
MODEL 3
REMARK VINA RESULT:      -7.6      3.305      5.561
REMARK  3 active torsions:
REMARK  status: ('A' for Active; 'I' for Inactive)
REMARK    1  A    between atoms: C4_4  and  C5_5 
REMARK    2  A    between atoms: C5_5  and  N1_6 
REMARK    3  A    between atoms: N1_6  and  C6_7 
ROOT
HETATM    1  C6  UNL     1     -25.217  65.374  25.773  1.00  0.00     0.160 A 
HETATM    2  N2  UNL     1     -26.134  64.741  26.566  1.00  0.00    -0.216 NA
HETATM    3  C7  UNL     1     -27.478  64.799  26.301  1.00  0.00     0.103 A 
HETATM    4  C8  UNL     1     -28.438  64.077  27.191  1.00  0.00     0.091 C 
HETATM    5  N3  UNL     1     -27.935  65.488  25.209  1.00  0.00    -0.330 N 
HETATM    6  H9  UNL     1     -28.955  65.533  24.987  1.00  0.00     0.168 HD
HETATM    7  C9  UNL     1     -27.031  66.116  24.417  1.00  0.00     0.120 A 
HETATM    8  C10 UNL     1     -25.694  66.076  24.672  1.00  0.00     0.057 A 
HETATM    9  C11 UNL     1     -25.066  66.809  23.687  1.00  0.00     0.036 A 
HETATM   10  C12 UNL     1     -26.096  67.265  22.866  1.00  0.00     0.091 A 
HETATM   11  N4  UNL     1     -27.299  66.836  23.317  1.00  0.00    -0.351 N 
HETATM   12  H12 UNL     1     -28.235  67.029  22.898  1.00  0.00     0.166 HD
ENDROOT
BRANCH   1  13
HETATM   13  N1  UNL     1     -23.944  65.325  26.032  1.00  0.00    -0.266 NA
BRANCH  13  14
HETATM   14  C5  UNL     1     -23.271  64.208  26.695  1.00  0.00     0.189 C 
BRANCH  14  15
HETATM   15  C4  UNL     1     -22.376  63.478  25.728  1.00  0.00    -0.038 A 
HETATM   16  C3  UNL     1     -22.695  63.422  24.361  1.00  0.00     0.009 A 
HETATM   17  C2  UNL     1     -21.870  62.721  23.474  1.00  0.00     0.001 A 
HETATM   18  C1  UNL     1     -20.725  62.073  23.946  1.00  0.00     0.000 A 
HETATM   19  C14 UNL     1     -20.404  62.123  25.305  1.00  0.00     0.001 A 
HETATM   20  C13 UNL     1     -21.226  62.821  26.195  1.00  0.00     0.009 A 
ENDBRANCH  14  15
ENDBRANCH  13  14
ENDBRANCH   1  13
TORSDOF 3
ENDMDL
MODEL 4
REMARK VINA RESULT:      -7.5      2.330      4.135
REMARK  3 active torsions:
REMARK  status: ('A' for Active; 'I' for Inactive)
REMARK    1  A    between atoms: C4_4  and  C5_5 
REMARK    2  A    between atoms: C5_5  and  N1_6 
REMARK    3  A    between atoms: N1_6  and  C6_7 
ROOT
HETATM    1  C6  UNL     1     -24.074  63.630  27.038  1.00  0.00     0.160 A 
HETATM    2  N2  UNL     1     -22.765  63.736  27.422  1.00  0.00    -0.216 NA
HETATM    3  C7  UNL     1     -22.317  63.210  28.606  1.00  0.00     0.103 A 
HETATM    4  C8  UNL     1     -20.874  63.339  28.972  1.00  0.00     0.091 C 
HETATM    5  N3  UNL     1     -23.181  62.542  29.433  1.00  0.00    -0.330 N 
HETATM    6  H9  UNL     1     -22.853  62.126  30.333  1.00  0.00     0.168 HD
HETATM    7  C9  UNL     1     -24.479  62.431  29.056  1.00  0.00     0.120 A 
HETATM    8  C10 UNL     1     -24.942  62.956  27.889  1.00  0.00     0.057 A 
HETATM    9  C11 UNL     1     -26.290  62.670  27.815  1.00  0.00     0.036 A 
HETATM   10  C12 UNL     1     -26.571  61.964  28.983  1.00  0.00     0.091 A 
HETATM   11  N4  UNL     1     -25.458  61.820  29.740  1.00  0.00    -0.351 N 
HETATM   12  H12 UNL     1     -25.381  61.336  30.662  1.00  0.00     0.166 HD
ENDROOT
BRANCH   1  13
HETATM   13  N1  UNL     1     -24.498  64.139  25.918  1.00  0.00    -0.266 NA
BRANCH  13  14
HETATM   14  C5  UNL     1     -24.826  65.550  25.716  1.00  0.00     0.189 C 
BRANCH  14  15
HETATM   15  C4  UNL     1     -26.169  65.693  25.049  1.00  0.00    -0.038 A 
HETATM   16  C3  UNL     1     -27.335  65.234  25.684  1.00  0.00     0.009 A 
HETATM   17  C2  UNL     1     -28.575  65.349  25.047  1.00  0.00     0.001 A 
HETATM   18  C1  UNL     1     -28.658  65.921  23.774  1.00  0.00     0.000 A 
HETATM   19  C14 UNL     1     -27.502  66.377  23.136  1.00  0.00     0.001 A 
HETATM   20  C13 UNL     1     -26.261  66.262  23.768  1.00  0.00     0.009 A 
ENDBRANCH  14  15
ENDBRANCH  13  14
ENDBRANCH   1  13
TORSDOF 3
ENDMDL
MODEL 5
REMARK VINA RESULT:      -7.3      3.208      5.535
REMARK  3 active torsions:
REMARK  status: ('A' for Active; 'I' for Inactive)
REMARK    1  A    between atoms: C4_4  and  C5_5 
REMARK    2  A    between atoms: C5_5  and  N1_6 
REMARK    3  A    between atoms: N1_6  and  C6_7 
ROOT
HETATM    1  C6  UNL     1     -24.880  65.244  25.554  1.00  0.00     0.160 A 
HETATM    2  N2  UNL     1     -25.673  64.490  26.375  1.00  0.00    -0.216 NA
HETATM    3  C7  UNL     1     -27.041  64.552  26.312  1.00  0.00     0.103 A 
HETATM    4  C8  UNL     1     -27.862  63.695  27.221  1.00  0.00     0.091 C 
HETATM    5  N3  UNL     1     -27.652  65.371  25.399  1.00  0.00    -0.330 N 
HETATM    6  H9  UNL     1     -28.692  65.422  25.331  1.00  0.00     0.168 HD
HETATM    7  C9  UNL     1     -26.871  66.119  24.581  1.00  0.00     0.120 A 
HETATM    8  C10 UNL     1     -25.512  66.076  24.637  1.00  0.00     0.057 A 
HETATM    9  C11 UNL     1     -25.033  66.949  23.682  1.00  0.00     0.036 A 
HETATM   10  C12 UNL     1     -26.171  67.486  23.084  1.00  0.00     0.091 A 
HETATM   11  N4  UNL     1     -27.295  66.974  23.638  1.00  0.00    -0.351 N 
HETATM   12  H12 UNL     1     -28.282  67.200  23.384  1.00  0.00     0.166 HD
ENDROOT
BRANCH   1  13
HETATM   13  N1  UNL     1     -23.583  65.190  25.623  1.00  0.00    -0.266 NA
BRANCH  13  14
HETATM   14  C5  UNL     1     -22.806  65.358  26.851  1.00  0.00     0.189 C 
BRANCH  14  15
HETATM   15  C4  UNL     1     -21.982  66.616  26.791  1.00  0.00    -0.038 A 
HETATM   16  C3  UNL     1     -21.840  67.321  25.584  1.00  0.00     0.009 A 
HETATM   17  C2  UNL     1     -21.052  68.476  25.532  1.00  0.00     0.001 A 
HETATM   18  C1  UNL     1     -20.403  68.934  26.683  1.00  0.00     0.000 A 
HETATM   19  C14 UNL     1     -20.538  68.236  27.886  1.00  0.00     0.001 A 
HETATM   20  C13 UNL     1     -21.323  67.081  27.942  1.00  0.00     0.009 A 
ENDBRANCH  14  15
ENDBRANCH  13  14
ENDBRANCH   1  13
TORSDOF 3
ENDMDL
MODEL 6
REMARK VINA RESULT:      -7.3      5.569      7.897
REMARK  3 active torsions:
REMARK  status: ('A' for Active; 'I' for Inactive)
REMARK    1  A    between atoms: C4_4  and  C5_5 
REMARK    2  A    between atoms: C5_5  and  N1_6 
REMARK    3  A    between atoms: N1_6  and  C6_7 
ROOT
HETATM    1  C6  UNL     1     -20.408  64.895  24.317  1.00  0.00     0.160 A 
HETATM    2  N2  UNL     1     -19.636  65.408  23.311  1.00  0.00    -0.216 NA
HETATM    3  C7  UNL     1     -18.958  64.596  22.437  1.00  0.00     0.103 A 
HETATM    4  C8  UNL     1     -18.140  65.206  21.346  1.00  0.00     0.091 C 
HETATM    5  N3  UNL     1     -19.058  63.234  22.546  1.00  0.00    -0.330 N 
HETATM    6  H9  UNL     1     -18.557  62.602  21.882  1.00  0.00     0.168 HD
HETATM    7  C9  UNL     1     -19.824  62.720  23.539  1.00  0.00     0.120 A 
HETATM    8  C10 UNL     1     -20.495  63.512  24.420  1.00  0.00     0.057 A 
HETATM    9  C11 UNL     1     -21.168  62.680  25.291  1.00  0.00     0.036 A 
HETATM   10  C12 UNL     1     -20.853  61.389  24.870  1.00  0.00     0.091 A 
HETATM   11  N4  UNL     1     -20.030  61.419  23.796  1.00  0.00    -0.351 N 
HETATM   12  H12 UNL     1     -19.638  60.601  23.279  1.00  0.00     0.166 HD
ENDROOT
BRANCH   1  13
HETATM   13  N1  UNL     1     -21.041  65.668  25.149  1.00  0.00    -0.266 NA
BRANCH  13  14
HETATM   14  C5  UNL     1     -22.045  66.661  24.765  1.00  0.00     0.189 C 
BRANCH  14  15
HETATM   15  C4  UNL     1     -23.431  66.165  25.080  1.00  0.00    -0.038 A 
HETATM   16  C3  UNL     1     -24.526  66.553  24.289  1.00  0.00     0.009 A 
HETATM   17  C2  UNL     1     -25.814  66.107  24.604  1.00  0.00     0.001 A 
HETATM   18  C1  UNL     1     -26.017  65.273  25.707  1.00  0.00     0.000 A 
HETATM   19  C14 UNL     1     -24.933  64.886  26.499  1.00  0.00     0.001 A 
HETATM   20  C13 UNL     1     -23.644  65.331  26.190  1.00  0.00     0.009 A 
ENDBRANCH  14  15
ENDBRANCH  13  14
ENDBRANCH   1  13
TORSDOF 3
ENDMDL
MODEL 7
REMARK VINA RESULT:      -7.2      3.250      6.840
REMARK  3 active torsions:
REMARK  status: ('A' for Active; 'I' for Inactive)
REMARK    1  A    between atoms: C4_4  and  C5_5 
REMARK    2  A    between atoms: C5_5  and  N1_6 
REMARK    3  A    between atoms: N1_6  and  C6_7 
ROOT
HETATM    1  C6  UNL     1     -23.126  64.770  25.338  1.00  0.00     0.160 A 
HETATM    2  N2  UNL     1     -21.867  65.260  25.550  1.00  0.00    -0.216 NA
HETATM    3  C7  UNL     1     -21.499  66.511  25.125  1.00  0.00     0.103 A 
HETATM    4  C8  UNL     1     -20.114  67.005  25.395  1.00  0.00     0.091 C 
HETATM    5  N3  UNL     1     -22.405  67.314  24.486  1.00  0.00    -0.330 N 
HETATM    6  H9  UNL     1     -22.145  68.274  24.166  1.00  0.00     0.168 HD
HETATM    7  C9  UNL     1     -23.657  66.836  24.276  1.00  0.00     0.120 A 
HETATM    8  C10 UNL     1     -24.035  65.593  24.682  1.00  0.00     0.057 A 
HETATM    9  C11 UNL     1     -25.354  65.423  24.316  1.00  0.00     0.036 A 
HETATM   10  C12 UNL     1     -25.707  66.616  23.687  1.00  0.00     0.091 A 
HETATM   11  N4  UNL     1     -24.664  67.479  23.666  1.00  0.00    -0.351 N 
HETATM   12  H12 UNL     1     -24.649  68.440  23.258  1.00  0.00     0.166 HD
ENDROOT
BRANCH   1  13
HETATM   13  N1  UNL     1     -23.469  63.580  25.734  1.00  0.00    -0.266 NA
BRANCH  13  14
HETATM   14  C5  UNL     1     -23.449  63.126  27.125  1.00  0.00     0.189 C 
BRANCH  14  15
HETATM   15  C4  UNL     1     -24.844  62.829  27.607  1.00  0.00    -0.038 A 
HETATM   16  C3  UNL     1     -25.924  63.637  27.213  1.00  0.00     0.009 A 
HETATM   17  C2  UNL     1     -27.213  63.368  27.685  1.00  0.00     0.001 A 
HETATM   18  C1  UNL     1     -27.432  62.294  28.552  1.00  0.00     0.000 A 
HETATM   19  C14 UNL     1     -26.362  61.488  28.950  1.00  0.00     0.001 A 
HETATM   20  C13 UNL     1     -25.072  61.754  28.482  1.00  0.00     0.009 A 
ENDBRANCH  14  15
ENDBRANCH  13  14
ENDBRANCH   1  13
TORSDOF 3
ENDMDL
MODEL 8
REMARK VINA RESULT:      -7.2      5.079      8.037
REMARK  3 active torsions:
REMARK  status: ('A' for Active; 'I' for Inactive)
REMARK    1  A    between atoms: C4_4  and  C5_5 
REMARK    2  A    between atoms: C5_5  and  N1_6 
REMARK    3  A    between atoms: N1_6  and  C6_7 
ROOT
HETATM    1  C6  UNL     1     -20.732  64.797  25.151  1.00  0.00     0.160 A 
HETATM    2  N2  UNL     1     -20.011  64.389  24.062  1.00  0.00    -0.216 NA
HETATM    3  C7  UNL     1     -19.481  65.287  23.172  1.00  0.00     0.103 A 
HETATM    4  C8  UNL     1     -18.688  64.790  22.006  1.00  0.00     0.091 C 
HETATM    5  N3  UNL     1     -19.651  66.632  23.367  1.00  0.00    -0.330 N 
HETATM    6  H9  UNL     1     -19.244  67.329  22.704  1.00  0.00     0.168 HD
HETATM    7  C9  UNL     1     -20.362  67.043  24.446  1.00  0.00     0.120 A 
HETATM    8  C10 UNL     1     -20.903  66.165  25.334  1.00  0.00     0.057 A 
HETATM    9  C11 UNL     1     -21.555  66.904  26.299  1.00  0.00     0.036 A 
HETATM   10  C12 UNL     1     -21.362  68.233  25.924  1.00  0.00     0.091 A 
HETATM   11  N4  UNL     1     -20.630  68.312  24.788  1.00  0.00    -0.351 N 
HETATM   12  H12 UNL     1     -20.338  69.180  24.285  1.00  0.00     0.166 HD
ENDROOT
BRANCH   1  13
HETATM   13  N1  UNL     1     -21.242  63.943  25.989  1.00  0.00    -0.266 NA
BRANCH  13  14
HETATM   14  C5  UNL     1     -22.289  62.975  25.659  1.00  0.00     0.189 C 
BRANCH  14  15
HETATM   15  C4  UNL     1     -23.604  63.389  26.262  1.00  0.00    -0.038 A 
HETATM   16  C3  UNL     1     -24.173  62.652  27.314  1.00  0.00     0.009 A 
HETATM   17  C2  UNL     1     -25.408  63.030  27.852  1.00  0.00     0.001 A 
HETATM   18  C1  UNL     1     -26.082  64.144  27.344  1.00  0.00     0.000 A 
HETATM   19  C14 UNL     1     -25.524  64.880  26.296  1.00  0.00     0.001 A 
HETATM   20  C13 UNL     1     -24.291  64.505  25.754  1.00  0.00     0.009 A 
ENDBRANCH  14  15
ENDBRANCH  13  14
ENDBRANCH   1  13
TORSDOF 3
ENDMDL
MODEL 9
REMARK VINA RESULT:      -7.0      3.122      5.319
REMARK  3 active torsions:
REMARK  status: ('A' for Active; 'I' for Inactive)
REMARK    1  A    between atoms: C4_4  and  C5_5 
REMARK    2  A    between atoms: C5_5  and  N1_6 
REMARK    3  A    between atoms: N1_6  and  C6_7 
ROOT
HETATM    1  C6  UNL     1     -24.893  65.212  25.834  1.00  0.00     0.160 A 
HETATM    2  N2  UNL     1     -24.892  66.020  24.729  1.00  0.00    -0.216 NA
HETATM    3  C7  UNL     1     -26.051  66.343  24.072  1.00  0.00     0.103 A 
HETATM    4  C8  UNL     1     -25.996  67.241  22.878  1.00  0.00     0.091 C 
HETATM    5  N3  UNL     1     -27.254  65.872  24.526  1.00  0.00    -0.330 N 
HETATM    6  H9  UNL     1     -28.147  66.118  24.044  1.00  0.00     0.168 HD
HETATM    7  C9  UNL     1     -27.262  65.074  25.623  1.00  0.00     0.120 A 
HETATM    8  C10 UNL     1     -26.120  64.735  26.281  1.00  0.00     0.057 A 
HETATM    9  C11 UNL     1     -26.478  63.923  27.336  1.00  0.00     0.036 A 
HETATM   10  C12 UNL     1     -27.865  63.814  27.251  1.00  0.00     0.091 A 
HETATM   11  N4  UNL     1     -28.341  64.523  26.199  1.00  0.00    -0.351 N 
HETATM   12  H12 UNL     1     -29.337  64.617  25.901  1.00  0.00     0.166 HD
ENDROOT
BRANCH   1  13
HETATM   13  N1  UNL     1     -23.791  64.899  26.449  1.00  0.00    -0.266 NA
BRANCH  13  14
HETATM   14  C5  UNL     1     -22.450  65.049  25.884  1.00  0.00     0.189 C 
BRANCH  14  15
HETATM   15  C4  UNL     1     -21.845  66.366  26.291  1.00  0.00    -0.038 A 
HETATM   16  C3  UNL     1     -21.590  67.363  25.335  1.00  0.00     0.009 A 
HETATM   17  C2  UNL     1     -21.005  68.574  25.719  1.00  0.00     0.001 A 
HETATM   18  C1  UNL     1     -20.671  68.797  27.058  1.00  0.00     0.000 A 
HETATM   19  C14 UNL     1     -20.919  67.809  28.014  1.00  0.00     0.001 A 
HETATM   20  C13 UNL     1     -21.502  66.596  27.634  1.00  0.00     0.009 A 
ENDBRANCH  14  15
ENDBRANCH  13  14
ENDBRANCH   1  13
TORSDOF 3
ENDMDL
