MODEL 1
REMARK VINA RESULT:      -6.4      0.000      0.000
REMARK  3 active torsions:
REMARK  status: ('A' for Active; 'I' for Inactive)
REMARK    1  A    between atoms: C2_2  and  C3_3 
REMARK    2  A    between atoms: C2_2  and  N1_10 
REMARK    3  A    between atoms: C3_3  and  C4_4 
REMARK       I    between atoms: N1_10  and  C10_11 
REMARK       I    between atoms: C10_11  and  N2_12 
ROOT
HETATM    1  C1  UNL     1     -26.041  65.083  26.040  1.00  0.00     0.032 C 
HETATM    2  C2  UNL     1     -25.267  65.887  24.990  1.00  0.00     0.086 C 
ENDROOT
BRANCH   2   3
HETATM    3  C3  UNL     1     -23.833  65.352  24.810  1.00  0.00     0.063 C 
BRANCH   3   4
HETATM    4  C4  UNL     1     -22.834  66.096  25.662  1.00  0.00    -0.056 A 
HETATM    5  C5  UNL     1     -22.210  67.258  25.174  1.00  0.00     0.007 A 
HETATM    6  C6  UNL     1     -21.284  67.946  25.962  1.00  0.00     0.001 A 
HETATM    7  C7  UNL     1     -20.969  67.479  27.241  1.00  0.00     0.000 A 
HETATM    8  C8  UNL     1     -21.579  66.322  27.732  1.00  0.00     0.001 A 
HETATM    9  C9  UNL     1     -22.507  65.630  26.947  1.00  0.00     0.007 A 
ENDBRANCH   3   4
ENDBRANCH   2   3
BRANCH   2  10
HETATM   10  N1  UNL     1     -25.974  65.810  23.707  1.00  0.00    -0.339 N 
HETATM   11  C10 UNL     1     -26.238  66.954  22.882  1.00  0.00     0.314 C 
HETATM   12  N2  UNL     1     -26.935  66.794  21.647  1.00  0.00    -0.352 N 
HETATM   13  O1  UNL     1     -25.860  68.103  23.237  1.00  0.00    -0.248 OA
HETATM   14  H13 UNL     1     -27.130  67.621  21.042  1.00  0.00     0.160 HD
HETATM   15  H14 UNL     1     -27.255  65.851  21.336  1.00  0.00     0.160 HD
HETATM   16  H12 UNL     1     -26.297  64.873  23.375  1.00  0.00     0.164 HD
ENDBRANCH   2  10
TORSDOF 3
ENDMDL
MODEL 2
REMARK VINA RESULT:      -6.3      3.478      5.028
REMARK  3 active torsions:
REMARK  status: ('A' for Active; 'I' for Inactive)
REMARK    1  A    between atoms: C2_2  and  C3_3 
REMARK    2  A    between atoms: C2_2  and  N1_10 
REMARK    3  A    between atoms: C3_3  and  C4_4 
REMARK       I    between atoms: N1_10  and  C10_11 
REMARK       I    between atoms: C10_11  and  N2_12 
ROOT
HETATM    1  C1  UNL     1     -23.750  62.965  26.935  1.00  0.00     0.032 C 
HETATM    2  C2  UNL     1     -23.538  63.848  25.701  1.00  0.00     0.086 C 
ENDROOT
BRANCH   2   3
HETATM    3  C3  UNL     1     -23.855  65.326  25.999  1.00  0.00     0.063 C 
BRANCH   3   4
HETATM    4  C4  UNL     1     -24.998  65.846  25.162  1.00  0.00    -0.056 A 
HETATM    5  C5  UNL     1     -24.753  66.740  24.104  1.00  0.00     0.007 A 
HETATM    6  C6  UNL     1     -25.811  67.223  23.329  1.00  0.00     0.001 A 
HETATM    7  C7  UNL     1     -27.121  66.823  23.605  1.00  0.00     0.000 A 
HETATM    8  C8  UNL     1     -27.375  65.940  24.658  1.00  0.00     0.001 A 
HETATM    9  C9  UNL     1     -26.319  65.454  25.437  1.00  0.00     0.007 A 
ENDBRANCH   3   4
ENDBRANCH   2   3
BRANCH   2  10
HETATM   10  N1  UNL     1     -22.144  63.735  25.260  1.00  0.00    -0.339 N 
HETATM   11  C10 UNL     1     -21.759  63.177  23.996  1.00  0.00     0.314 C 
HETATM   12  N2  UNL     1     -20.378  63.100  23.643  1.00  0.00    -0.352 N 
HETATM   13  O1  UNL     1     -22.630  62.752  23.189  1.00  0.00    -0.248 OA
HETATM   14  H13 UNL     1     -20.091  62.697  22.724  1.00  0.00     0.160 HD
HETATM   15  H14 UNL     1     -19.643  63.447  24.297  1.00  0.00     0.160 HD
HETATM   16  H12 UNL     1     -21.393  64.082  25.898  1.00  0.00     0.164 HD
ENDBRANCH   2  10
TORSDOF 3
ENDMDL
MODEL 3
REMARK VINA RESULT:      -6.3      4.274      5.957
REMARK  3 active torsions:
REMARK  status: ('A' for Active; 'I' for Inactive)
REMARK    1  A    between atoms: C2_2  and  C3_3 
REMARK    2  A    between atoms: C2_2  and  N1_10 
REMARK    3  A    between atoms: C3_3  and  C4_4 
REMARK       I    between atoms: N1_10  and  C10_11 
REMARK       I    between atoms: C10_11  and  N2_12 
ROOT
HETATM    1  C1  UNL     1     -25.556  61.697  28.558  1.00  0.00     0.032 C 
HETATM    2  C2  UNL     1     -25.020  62.707  27.538  1.00  0.00     0.086 C 
ENDROOT
BRANCH   2   3
HETATM    3  C3  UNL     1     -25.629  64.106  27.750  1.00  0.00     0.063 C 
BRANCH   3   4
HETATM    4  C4  UNL     1     -26.584  64.488  26.645  1.00  0.00    -0.056 A 
HETATM    5  C5  UNL     1     -26.179  65.376  25.633  1.00  0.00     0.007 A 
HETATM    6  C6  UNL     1     -27.063  65.731  24.610  1.00  0.00     0.001 A 
HETATM    7  C7  UNL     1     -28.358  65.207  24.592  1.00  0.00     0.000 A 
HETATM    8  C8  UNL     1     -28.771  64.329  25.597  1.00  0.00     0.001 A 
HETATM    9  C9  UNL     1     -27.890  63.970  26.622  1.00  0.00     0.007 A 
ENDBRANCH   3   4
ENDBRANCH   2   3
BRANCH   2  10
HETATM   10  N1  UNL     1     -23.561  62.793  27.665  1.00  0.00    -0.339 N 
HETATM   11  C10 UNL     1     -22.692  63.135  26.576  1.00  0.00     0.314 C 
HETATM   12  N2  UNL     1     -21.282  63.195  26.783  1.00  0.00    -0.352 N 
HETATM   13  O1  UNL     1     -23.163  63.384  25.434  1.00  0.00    -0.248 OA
HETATM   14  H13 UNL     1     -20.643  63.444  25.996  1.00  0.00     0.160 HD
HETATM   15  H14 UNL     1     -20.874  62.992  27.722  1.00  0.00     0.160 HD
HETATM   16  H12 UNL     1     -23.133  62.600  28.599  1.00  0.00     0.164 HD
ENDBRANCH   2  10
TORSDOF 3
ENDMDL
MODEL 4
REMARK VINA RESULT:      -6.2      4.249      5.804
REMARK  3 active torsions:
REMARK  status: ('A' for Active; 'I' for Inactive)
REMARK    1  A    between atoms: C2_2  and  C3_3 
REMARK    2  A    between atoms: C2_2  and  N1_10 
REMARK    3  A    between atoms: C3_3  and  C4_4 
REMARK       I    between atoms: N1_10  and  C10_11 
REMARK       I    between atoms: C10_11  and  N2_12 
ROOT
HETATM    1  C1  UNL     1     -27.425  62.572  28.267  1.00  0.00     0.032 C 
HETATM    2  C2  UNL     1     -27.980  63.924  27.804  1.00  0.00     0.086 C 
ENDROOT
BRANCH   2   3
HETATM    3  C3  UNL     1     -27.926  64.065  26.271  1.00  0.00     0.063 C 
BRANCH   3   4
HETATM    4  C4  UNL     1     -26.706  64.824  25.808  1.00  0.00    -0.056 A 
HETATM    5  C5  UNL     1     -25.469  64.639  26.451  1.00  0.00     0.007 A 
HETATM    6  C6  UNL     1     -24.340  65.343  26.024  1.00  0.00     0.001 A 
HETATM    7  C7  UNL     1     -24.436  66.239  24.956  1.00  0.00     0.000 A 
HETATM    8  C8  UNL     1     -25.662  66.434  24.315  1.00  0.00     0.001 A 
HETATM    9  C9  UNL     1     -26.795  65.732  24.739  1.00  0.00     0.007 A 
ENDBRANCH   3   4
ENDBRANCH   2   3
BRANCH   2  10
HETATM   10  N1  UNL     1     -29.371  64.052  28.250  1.00  0.00    -0.339 N 
HETATM   11  C10 UNL     1     -29.740  64.433  29.584  1.00  0.00     0.314 C 
HETATM   12  N2  UNL     1     -31.118  64.533  29.939  1.00  0.00    -0.352 N 
HETATM   13  O1  UNL     1     -28.856  64.682  30.448  1.00  0.00    -0.248 OA
HETATM   14  H13 UNL     1     -31.394  64.810  30.907  1.00  0.00     0.160 HD
HETATM   15  H14 UNL     1     -31.864  64.331  29.237  1.00  0.00     0.160 HD
HETATM   16  H12 UNL     1     -30.132  63.861  27.561  1.00  0.00     0.164 HD
ENDBRANCH   2  10
TORSDOF 3
ENDMDL
MODEL 5
REMARK VINA RESULT:      -6.2      5.290      7.035
REMARK  3 active torsions:
REMARK  status: ('A' for Active; 'I' for Inactive)
REMARK    1  A    between atoms: C2_2  and  C3_3 
REMARK    2  A    between atoms: C2_2  and  N1_10 
REMARK    3  A    between atoms: C3_3  and  C4_4 
REMARK       I    between atoms: N1_10  and  C10_11 
REMARK       I    between atoms: C10_11  and  N2_12 
ROOT
HETATM    1  C1  UNL     1     -25.256  61.393  28.628  1.00  0.00     0.032 C 
HETATM    2  C2  UNL     1     -26.061  62.619  29.070  1.00  0.00     0.086 C 
ENDROOT
BRANCH   2   3
HETATM    3  C3  UNL     1     -27.372  62.755  28.274  1.00  0.00     0.063 C 
BRANCH   3   4
HETATM    4  C4  UNL     1     -27.255  63.745  27.141  1.00  0.00    -0.056 A 
HETATM    5  C5  UNL     1     -26.029  64.382  26.881  1.00  0.00     0.007 A 
HETATM    6  C6  UNL     1     -25.919  65.300  25.832  1.00  0.00     0.001 A 
HETATM    7  C7  UNL     1     -27.032  65.593  25.039  1.00  0.00     0.000 A 
HETATM    8  C8  UNL     1     -28.256  64.969  25.295  1.00  0.00     0.001 A 
HETATM    9  C9  UNL     1     -28.370  64.050  26.343  1.00  0.00     0.007 A 
ENDBRANCH   3   4
ENDBRANCH   2   3
BRANCH   2  10
HETATM   10  N1  UNL     1     -26.374  62.500  30.498  1.00  0.00    -0.339 N 
HETATM   11  C10 UNL     1     -26.420  63.620  31.392  1.00  0.00     0.314 C 
HETATM   12  N2  UNL     1     -26.731  63.419  32.770  1.00  0.00    -0.352 N 
HETATM   13  O1  UNL     1     -26.187  64.786  30.973  1.00  0.00    -0.248 OA
HETATM   14  H13 UNL     1     -26.767  64.229  33.427  1.00  0.00     0.160 HD
HETATM   15  H14 UNL     1     -26.927  62.461  33.136  1.00  0.00     0.160 HD
HETATM   16  H12 UNL     1     -26.580  61.550  30.883  1.00  0.00     0.164 HD
ENDBRANCH   2  10
TORSDOF 3
ENDMDL
MODEL 6
REMARK VINA RESULT:      -6.2      4.181      5.396
REMARK  3 active torsions:
REMARK  status: ('A' for Active; 'I' for Inactive)
REMARK    1  A    between atoms: C2_2  and  C3_3 
REMARK    2  A    between atoms: C2_2  and  N1_10 
REMARK    3  A    between atoms: C3_3  and  C4_4 
REMARK       I    between atoms: N1_10  and  C10_11 
REMARK       I    between atoms: C10_11  and  N2_12 
ROOT
HETATM    1  C1  UNL     1     -28.849  64.280  25.132  1.00  0.00     0.032 C 
HETATM    2  C2  UNL     1     -27.951  64.246  26.373  1.00  0.00     0.086 C 
ENDROOT
BRANCH   2   3
HETATM    3  C3  UNL     1     -26.645  65.033  26.152  1.00  0.00     0.063 C 
BRANCH   3   4
HETATM    4  C4  UNL     1     -25.419  64.197  26.431  1.00  0.00    -0.056 A 
HETATM    5  C5  UNL     1     -25.450  63.203  27.425  1.00  0.00     0.007 A 
HETATM    6  C6  UNL     1     -24.315  62.430  27.685  1.00  0.00     0.001 A 
HETATM    7  C7  UNL     1     -23.140  62.646  26.960  1.00  0.00     0.000 A 
HETATM    8  C8  UNL     1     -23.099  63.636  25.974  1.00  0.00     0.001 A 
HETATM    9  C9  UNL     1     -24.232  64.412  25.711  1.00  0.00     0.007 A 
ENDBRANCH   3   4
ENDBRANCH   2   3
BRANCH   2  10
HETATM   10  N1  UNL     1     -28.676  64.827  27.508  1.00  0.00    -0.339 N 
HETATM   11  C10 UNL     1     -28.901  64.130  28.742  1.00  0.00     0.314 C 
HETATM   12  N2  UNL     1     -29.619  64.766  29.798  1.00  0.00    -0.352 N 
HETATM   13  O1  UNL     1     -28.469  62.957  28.904  1.00  0.00    -0.248 OA
HETATM   14  H13 UNL     1     -29.785  64.265  30.698  1.00  0.00     0.160 HD
HETATM   15  H14 UNL     1     -29.984  65.737  29.682  1.00  0.00     0.160 HD
HETATM   16  H12 UNL     1     -29.044  65.801  27.415  1.00  0.00     0.164 HD
ENDBRANCH   2  10
TORSDOF 3
ENDMDL
MODEL 7
REMARK VINA RESULT:      -6.0      3.199      4.233
REMARK  3 active torsions:
REMARK  status: ('A' for Active; 'I' for Inactive)
REMARK    1  A    between atoms: C2_2  and  C3_3 
REMARK    2  A    between atoms: C2_2  and  N1_10 
REMARK    3  A    between atoms: C3_3  and  C4_4 
REMARK       I    between atoms: N1_10  and  C10_11 
REMARK       I    between atoms: C10_11  and  N2_12 
ROOT
HETATM    1  C1  UNL     1     -28.895  64.578  24.067  1.00  0.00     0.032 C 
HETATM    2  C2  UNL     1     -27.856  64.900  25.146  1.00  0.00     0.086 C 
ENDROOT
BRANCH   2   3
HETATM    3  C3  UNL     1     -27.010  66.131  24.771  1.00  0.00     0.063 C 
BRANCH   3   4
HETATM    4  C4  UNL     1     -25.556  65.960  25.138  1.00  0.00    -0.056 A 
HETATM    5  C5  UNL     1     -24.558  66.639  24.418  1.00  0.00     0.007 A 
HETATM    6  C6  UNL     1     -23.211  66.480  24.757  1.00  0.00     0.001 A 
HETATM    7  C7  UNL     1     -22.850  65.639  25.813  1.00  0.00     0.000 A 
HETATM    8  C8  UNL     1     -23.834  64.956  26.531  1.00  0.00     0.001 A 
HETATM    9  C9  UNL     1     -25.183  65.112  26.195  1.00  0.00     0.007 A 
ENDBRANCH   3   4
ENDBRANCH   2   3
BRANCH   2  10
HETATM   10  N1  UNL     1     -28.545  65.158  26.415  1.00  0.00    -0.339 N 
HETATM   11  C10 UNL     1     -28.547  64.234  27.513  1.00  0.00     0.314 C 
HETATM   12  N2  UNL     1     -29.244  64.560  28.715  1.00  0.00    -0.352 N 
HETATM   13  O1  UNL     1     -27.938  63.134  27.428  1.00  0.00    -0.248 OA
HETATM   14  H13 UNL     1     -29.250  63.893  29.518  1.00  0.00     0.160 HD
HETATM   15  H14 UNL     1     -29.754  65.466  28.805  1.00  0.00     0.160 HD
HETATM   16  H12 UNL     1     -29.056  66.063  26.528  1.00  0.00     0.164 HD
ENDBRANCH   2  10
TORSDOF 3
ENDMDL
MODEL 8
REMARK VINA RESULT:      -6.0      2.723      5.379
REMARK  3 active torsions:
REMARK  status: ('A' for Active; 'I' for Inactive)
REMARK    1  A    between atoms: C2_2  and  C3_3 
REMARK    2  A    between atoms: C2_2  and  N1_10 
REMARK    3  A    between atoms: C3_3  and  C4_4 
REMARK       I    between atoms: N1_10  and  C10_11 
REMARK       I    between atoms: C10_11  and  N2_12 
ROOT
HETATM    1  C1  UNL     1     -23.352  63.221  26.305  1.00  0.00     0.032 C 
HETATM    2  C2  UNL     1     -24.031  64.544  25.935  1.00  0.00     0.086 C 
ENDROOT
BRANCH   2   3
HETATM    3  C3  UNL     1     -25.249  64.828  26.836  1.00  0.00     0.063 C 
BRANCH   3   4
HETATM    4  C4  UNL     1     -26.539  64.886  26.053  1.00  0.00    -0.056 A 
HETATM    5  C5  UNL     1     -27.623  64.067  26.412  1.00  0.00     0.007 A 
HETATM    6  C6  UNL     1     -28.817  64.120  25.687  1.00  0.00     0.001 A 
HETATM    7  C7  UNL     1     -28.937  64.986  24.597  1.00  0.00     0.000 A 
HETATM    8  C8  UNL     1     -27.861  65.799  24.229  1.00  0.00     0.001 A 
HETATM    9  C9  UNL     1     -26.664  65.750  24.951  1.00  0.00     0.007 A 
ENDBRANCH   3   4
ENDBRANCH   2   3
BRANCH   2  10
HETATM   10  N1  UNL     1     -23.064  65.637  26.075  1.00  0.00    -0.339 N 
HETATM   11  C10 UNL     1     -22.912  66.685  25.107  1.00  0.00     0.314 C 
HETATM   12  N2  UNL     1     -21.945  67.713  25.317  1.00  0.00    -0.352 N 
HETATM   13  O1  UNL     1     -23.627  66.709  24.070  1.00  0.00    -0.248 OA
HETATM   14  H13 UNL     1     -21.829  68.479  24.618  1.00  0.00     0.160 HD
HETATM   15  H14 UNL     1     -21.344  67.710  26.171  1.00  0.00     0.160 HD
HETATM   16  H12 UNL     1     -22.457  65.657  26.926  1.00  0.00     0.164 HD
ENDBRANCH   2  10
TORSDOF 3
ENDMDL
MODEL 9
REMARK VINA RESULT:      -6.0      2.921      5.380
REMARK  3 active torsions:
REMARK  status: ('A' for Active; 'I' for Inactive)
REMARK    1  A    between atoms: C2_2  and  C3_3 
REMARK    2  A    between atoms: C2_2  and  N1_10 
REMARK    3  A    between atoms: C3_3  and  C4_4 
REMARK       I    between atoms: N1_10  and  C10_11 
REMARK       I    between atoms: C10_11  and  N2_12 
ROOT
HETATM    1  C1  UNL     1     -22.545  66.489  25.511  1.00  0.00     0.032 C 
HETATM    2  C2  UNL     1     -23.656  65.457  25.294  1.00  0.00     0.086 C 
ENDROOT
BRANCH   2   3
HETATM    3  C3  UNL     1     -24.968  66.122  24.837  1.00  0.00     0.063 C 
BRANCH   3   4
HETATM    4  C4  UNL     1     -26.188  65.408  25.368  1.00  0.00    -0.056 A 
HETATM    5  C5  UNL     1     -27.412  65.487  24.680  1.00  0.00     0.007 A 
HETATM    6  C6  UNL     1     -28.541  64.827  25.172  1.00  0.00     0.001 A 
HETATM    7  C7  UNL     1     -28.460  64.088  26.355  1.00  0.00     0.000 A 
HETATM    8  C8  UNL     1     -27.250  64.008  27.048  1.00  0.00     0.001 A 
HETATM    9  C9  UNL     1     -26.117  64.667  26.560  1.00  0.00     0.007 A 
ENDBRANCH   3   4
ENDBRANCH   2   3
BRANCH   2  10
HETATM   10  N1  UNL     1     -23.226  64.493  24.276  1.00  0.00    -0.339 N 
HETATM   11  C10 UNL     1     -22.541  63.271  24.585  1.00  0.00     0.314 C 
HETATM   12  N2  UNL     1     -22.154  62.386  23.535  1.00  0.00    -0.352 N 
HETATM   13  O1  UNL     1     -22.278  62.967  25.780  1.00  0.00    -0.248 OA
HETATM   14  H13 UNL     1     -21.656  61.495  23.752  1.00  0.00     0.160 HD
HETATM   15  H14 UNL     1     -22.364  62.620  22.539  1.00  0.00     0.160 HD
HETATM   16  H12 UNL     1     -23.432  64.705  23.273  1.00  0.00     0.164 HD
ENDBRANCH   2  10
TORSDOF 3
ENDMDL
