MODEL 1
REMARK VINA RESULT:      -9.1      0.000      0.000
REMARK  0 active torsions:
REMARK  status: ('A' for Active; 'I' for Inactive)
ROOT
HETATM    1  C1  UNL     1     -28.310  63.260  28.856  1.00  0.00     0.048 C 
HETATM    2  C2  UNL     1     -27.041  63.355  28.063  1.00  0.00    -0.061 A 
HETATM    3  C3  UNL     1     -26.006  62.427  28.252  1.00  0.00     0.009 A 
HETATM    4  C4  UNL     1     -24.815  62.546  27.532  1.00  0.00     0.030 A 
HETATM    5  C5  UNL     1     -24.650  63.581  26.602  1.00  0.00     0.038 A 
HETATM    6  C6  UNL     1     -25.706  64.482  26.359  1.00  0.00    -0.001 A 
HETATM    7  C7  UNL     1     -26.882  64.387  27.127  1.00  0.00     0.021 A 
HETATM    8  C8  UNL     1     -25.484  65.563  25.360  1.00  0.00    -0.013 C 
HETATM    9  C9  UNL     1     -26.441  65.989  24.495  1.00  0.00     0.131 C 
HETATM   10  C10 UNL     1     -26.194  67.047  23.544  1.00  0.00     0.111 C 
HETATM   11  N1  UNL     1     -25.997  67.894  22.781  1.00  0.00    -0.191 NA
HETATM   12  C11 UNL     1     -27.734  65.356  24.404  1.00  0.00     0.111 C 
HETATM   13  N2  UNL     1     -28.771  64.849  24.328  1.00  0.00    -0.191 NA
HETATM   14  C12 UNL     1     -24.052  66.048  25.285  1.00  0.00     0.061 C 
HETATM   15  C13 UNL     1     -23.122  64.858  25.010  1.00  0.00     0.124 C 
HETATM   16  N3  UNL     1     -23.399  63.733  25.908  1.00  0.00    -0.389 N 
HETATM   17  H11 UNL     1     -22.669  62.990  26.000  1.00  0.00     0.159 HD
ENDROOT
TORSDOF 0
ENDMDL
MODEL 2
REMARK VINA RESULT:      -8.6      1.658      5.459
REMARK  0 active torsions:
REMARK  status: ('A' for Active; 'I' for Inactive)
ROOT
HETATM    1  C1  UNL     1     -22.665  66.999  24.998  1.00  0.00     0.048 C 
HETATM    2  C2  UNL     1     -24.052  66.431  24.948  1.00  0.00    -0.061 A 
HETATM    3  C3  UNL     1     -24.925  66.762  23.901  1.00  0.00     0.009 A 
HETATM    4  C4  UNL     1     -26.226  66.254  23.882  1.00  0.00     0.030 A 
HETATM    5  C5  UNL     1     -26.664  65.394  24.899  1.00  0.00     0.038 A 
HETATM    6  C6  UNL     1     -25.777  65.007  25.922  1.00  0.00    -0.001 A 
HETATM    7  C7  UNL     1     -24.486  65.565  25.962  1.00  0.00     0.021 A 
HETATM    8  C8  UNL     1     -26.289  64.090  26.978  1.00  0.00    -0.013 C 
HETATM    9  C9  UNL     1     -25.547  63.091  27.524  1.00  0.00     0.131 C 
HETATM   10  C10 UNL     1     -26.073  62.226  28.553  1.00  0.00     0.111 C 
HETATM   11  N1  UNL     1     -26.492  61.532  29.378  1.00  0.00    -0.191 NA
HETATM   12  C11 UNL     1     -24.223  62.768  27.051  1.00  0.00     0.111 C 
HETATM   13  N2  UNL     1     -23.161  62.506  26.673  1.00  0.00    -0.191 NA
HETATM   14  C12 UNL     1     -27.759  64.268  27.288  1.00  0.00     0.061 C 
HETATM   15  C13 UNL     1     -28.577  64.117  25.998  1.00  0.00     0.124 C 
HETATM   16  N3  UNL     1     -28.023  64.923  24.906  1.00  0.00    -0.389 N 
HETATM   17  H11 UNL     1     -28.636  65.113  24.080  1.00  0.00     0.159 HD
ENDROOT
TORSDOF 0
ENDMDL
MODEL 3
REMARK VINA RESULT:      -8.5      2.102      4.747
REMARK  0 active torsions:
REMARK  status: ('A' for Active; 'I' for Inactive)
ROOT
HETATM    1  C1  UNL     1     -29.361  65.573  24.033  1.00  0.00     0.048 C 
HETATM    2  C2  UNL     1     -28.008  65.480  24.675  1.00  0.00    -0.061 A 
HETATM    3  C3  UNL     1     -26.949  66.289  24.236  1.00  0.00     0.009 A 
HETATM    4  C4  UNL     1     -25.685  66.169  24.818  1.00  0.00     0.030 A 
HETATM    5  C5  UNL     1     -25.468  65.253  25.858  1.00  0.00     0.038 A 
HETATM    6  C6  UNL     1     -26.539  64.480  26.347  1.00  0.00    -0.001 A 
HETATM    7  C7  UNL     1     -27.796  64.569  25.719  1.00  0.00     0.021 A 
HETATM    8  C8  UNL     1     -26.259  63.523  27.453  1.00  0.00    -0.013 C 
HETATM    9  C9  UNL     1     -27.122  63.292  28.477  1.00  0.00     0.131 C 
HETATM   10  C10 UNL     1     -26.823  62.350  29.529  1.00  0.00     0.111 C 
HETATM   11  N1  UNL     1     -26.584  61.596  30.373  1.00  0.00    -0.191 NA
HETATM   12  C11 UNL     1     -28.350  64.033  28.632  1.00  0.00     0.111 C 
HETATM   13  N2  UNL     1     -29.334  64.628  28.760  1.00  0.00    -0.191 NA
HETATM   14  C12 UNL     1     -24.864  62.939  27.423  1.00  0.00     0.061 C 
HETATM   15  C13 UNL     1     -23.832  64.075  27.417  1.00  0.00     0.124 C 
HETATM   16  N3  UNL     1     -24.151  65.093  26.411  1.00  0.00    -0.389 N 
HETATM   17  H11 UNL     1     -23.392  65.756  26.131  1.00  0.00     0.159 HD
ENDROOT
TORSDOF 0
ENDMDL
MODEL 4
REMARK VINA RESULT:      -8.4      1.807      5.184
REMARK  0 active torsions:
REMARK  status: ('A' for Active; 'I' for Inactive)
ROOT
HETATM    1  C1  UNL     1     -26.018  67.440  23.088  1.00  0.00     0.048 C 
HETATM    2  C2  UNL     1     -26.652  66.429  23.997  1.00  0.00    -0.061 A 
HETATM    3  C3  UNL     1     -27.993  66.052  23.825  1.00  0.00     0.009 A 
HETATM    4  C4  UNL     1     -28.582  65.135  24.699  1.00  0.00     0.030 A 
HETATM    5  C5  UNL     1     -27.836  64.570  25.741  1.00  0.00     0.038 A 
HETATM    6  C6  UNL     1     -26.473  64.895  25.885  1.00  0.00    -0.001 A 
HETATM    7  C7  UNL     1     -25.901  65.859  25.034  1.00  0.00     0.021 A 
HETATM    8  C8  UNL     1     -25.721  64.267  27.007  1.00  0.00    -0.013 C 
HETATM    9  C9  UNL     1     -24.433  63.848  26.902  1.00  0.00     0.131 C 
HETATM   10  C10 UNL     1     -23.732  63.251  28.013  1.00  0.00     0.111 C 
HETATM   11  N1  UNL     1     -23.169  62.772  28.903  1.00  0.00    -0.191 NA
HETATM   12  C11 UNL     1     -23.711  63.885  25.653  1.00  0.00     0.111 C 
HETATM   13  N2  UNL     1     -23.130  63.912  24.653  1.00  0.00    -0.191 NA
HETATM   14  C12 UNL     1     -26.562  63.997  28.236  1.00  0.00     0.061 C 
HETATM   15  C13 UNL     1     -27.774  63.138  27.850  1.00  0.00     0.124 C 
HETATM   16  N3  UNL     1     -28.466  63.673  26.672  1.00  0.00    -0.389 N 
HETATM   17  H11 UNL     1     -29.439  63.340  26.486  1.00  0.00     0.159 HD
ENDROOT
TORSDOF 0
ENDMDL
MODEL 5
REMARK VINA RESULT:      -8.2      1.247      3.412
REMARK  0 active torsions:
REMARK  status: ('A' for Active; 'I' for Inactive)
ROOT
HETATM    1  C1  UNL     1     -24.882  61.534  28.548  1.00  0.00     0.048 C 
HETATM    2  C2  UNL     1     -25.927  62.532  28.144  1.00  0.00    -0.061 A 
HETATM    3  C3  UNL     1     -27.106  62.678  28.891  1.00  0.00     0.009 A 
HETATM    4  C4  UNL     1     -28.087  63.586  28.485  1.00  0.00     0.030 A 
HETATM    5  C5  UNL     1     -27.894  64.372  27.341  1.00  0.00     0.038 A 
HETATM    6  C6  UNL     1     -26.689  64.278  26.620  1.00  0.00    -0.001 A 
HETATM    7  C7  UNL     1     -25.729  63.323  27.004  1.00  0.00     0.021 A 
HETATM    8  C8  UNL     1     -26.530  65.135  25.413  1.00  0.00    -0.013 C 
HETATM    9  C9  UNL     1     -25.359  65.733  25.069  1.00  0.00     0.131 C 
HETATM   10  C10 UNL     1     -25.239  66.551  23.886  1.00  0.00     0.111 C 
HETATM   11  N1  UNL     1     -25.141  67.207  22.938  1.00  0.00    -0.191 NA
HETATM   12  C11 UNL     1     -24.186  65.666  25.906  1.00  0.00     0.111 C 
HETATM   13  N2  UNL     1     -23.244  65.617  26.576  1.00  0.00    -0.191 NA
HETATM   14  C12 UNL     1     -27.825  65.410  24.678  1.00  0.00     0.061 C 
HETATM   15  C13 UNL     1     -28.844  66.024  25.648  1.00  0.00     0.124 C 
HETATM   16  N3  UNL     1     -28.934  65.261  26.897  1.00  0.00    -0.389 N 
HETATM   17  H11 UNL     1     -29.770  65.417  27.505  1.00  0.00     0.159 HD
ENDROOT
TORSDOF 0
ENDMDL
MODEL 6
REMARK VINA RESULT:      -8.1      1.824      3.511
REMARK  0 active torsions:
REMARK  status: ('A' for Active; 'I' for Inactive)
ROOT
HETATM    1  C1  UNL     1     -22.357  62.881  26.832  1.00  0.00     0.048 C 
HETATM    2  C2  UNL     1     -23.750  63.272  27.230  1.00  0.00    -0.061 A 
HETATM    3  C3  UNL     1     -24.188  63.115  28.553  1.00  0.00     0.009 A 
HETATM    4  C4  UNL     1     -25.498  63.450  28.905  1.00  0.00     0.030 A 
HETATM    5  C5  UNL     1     -26.379  63.964  27.943  1.00  0.00     0.038 A 
HETATM    6  C6  UNL     1     -25.931  64.183  26.626  1.00  0.00    -0.001 A 
HETATM    7  C7  UNL     1     -24.627  63.793  26.268  1.00  0.00     0.021 A 
HETATM    8  C8  UNL     1     -26.904  64.732  25.642  1.00  0.00    -0.013 C 
HETATM    9  C9  UNL     1     -26.570  65.641  24.689  1.00  0.00     0.131 C 
HETATM   10  C10 UNL     1     -27.538  66.146  23.744  1.00  0.00     0.111 C 
HETATM   11  N1  UNL     1     -28.312  66.552  22.986  1.00  0.00    -0.191 NA
HETATM   12  C11 UNL     1     -25.256  66.231  24.613  1.00  0.00     0.111 C 
HETATM   13  N2  UNL     1     -24.203  66.707  24.552  1.00  0.00    -0.191 NA
HETATM   14  C12 UNL     1     -28.335  64.304  25.886  1.00  0.00     0.061 C 
HETATM   15  C13 UNL     1     -28.744  64.679  27.317  1.00  0.00     0.124 C 
HETATM   16  N3  UNL     1     -27.743  64.250  28.299  1.00  0.00    -0.389 N 
HETATM   17  H11 UNL     1     -28.032  64.204  29.302  1.00  0.00     0.159 HD
ENDROOT
TORSDOF 0
ENDMDL
MODEL 7
REMARK VINA RESULT:      -8.1      1.720      3.675
REMARK  0 active torsions:
REMARK  status: ('A' for Active; 'I' for Inactive)
ROOT
HETATM    1  C1  UNL     1     -25.683  61.577  28.769  1.00  0.00     0.048 C 
HETATM    2  C2  UNL     1     -26.073  62.703  27.857  1.00  0.00    -0.061 A 
HETATM    3  C3  UNL     1     -27.418  63.071  27.706  1.00  0.00     0.009 A 
HETATM    4  C4  UNL     1     -27.772  64.098  26.827  1.00  0.00     0.030 A 
HETATM    5  C5  UNL     1     -26.785  64.782  26.104  1.00  0.00     0.038 A 
HETATM    6  C6  UNL     1     -25.427  64.462  26.294  1.00  0.00    -0.001 A 
HETATM    7  C7  UNL     1     -25.083  63.390  27.140  1.00  0.00     0.021 A 
HETATM    8  C8  UNL     1     -24.416  65.218  25.504  1.00  0.00    -0.013 C 
HETATM    9  C9  UNL     1     -23.214  65.605  26.005  1.00  0.00     0.131 C 
HETATM   10  C10 UNL     1     -22.253  66.330  25.208  1.00  0.00     0.111 C 
HETATM   11  N1  UNL     1     -21.482  66.911  24.570  1.00  0.00    -0.191 NA
HETATM   12  C11 UNL     1     -22.853  65.402  27.387  1.00  0.00     0.111 C 
HETATM   13  N2  UNL     1     -22.562  65.242  28.495  1.00  0.00    -0.191 NA
HETATM   14  C12 UNL     1     -24.900  65.651  24.138  1.00  0.00     0.061 C 
HETATM   15  C13 UNL     1     -26.191  66.468  24.287  1.00  0.00     0.124 C 
HETATM   16  N3  UNL     1     -27.162  65.797  25.157  1.00  0.00    -0.389 N 
HETATM   17  H11 UNL     1     -28.157  66.114  25.114  1.00  0.00     0.159 HD
ENDROOT
TORSDOF 0
ENDMDL
MODEL 8
REMARK VINA RESULT:      -7.4      1.859      2.697
REMARK  0 active torsions:
REMARK  status: ('A' for Active; 'I' for Inactive)
ROOT
HETATM    1  C1  UNL     1     -28.624  64.656  26.746  1.00  0.00     0.048 C 
HETATM    2  C2  UNL     1     -27.232  64.154  26.990  1.00  0.00    -0.061 A 
HETATM    3  C3  UNL     1     -27.015  62.901  27.583  1.00  0.00     0.009 A 
HETATM    4  C4  UNL     1     -25.715  62.459  27.837  1.00  0.00     0.030 A 
HETATM    5  C5  UNL     1     -24.616  63.254  27.486  1.00  0.00     0.038 A 
HETATM    6  C6  UNL     1     -24.820  64.486  26.835  1.00  0.00    -0.001 A 
HETATM    7  C7  UNL     1     -26.134  64.948  26.631  1.00  0.00     0.021 A 
HETATM    8  C8  UNL     1     -23.620  65.294  26.479  1.00  0.00    -0.013 C 
HETATM    9  C9  UNL     1     -23.513  66.004  25.326  1.00  0.00     0.131 C 
HETATM   10  C10 UNL     1     -22.338  66.784  25.017  1.00  0.00     0.111 C 
HETATM   11  N1  UNL     1     -21.397  67.409  24.768  1.00  0.00    -0.191 NA
HETATM   12  C11 UNL     1     -24.520  65.955  24.294  1.00  0.00     0.111 C 
HETATM   13  N2  UNL     1     -25.325  65.916  23.464  1.00  0.00    -0.191 NA
HETATM   14  C12 UNL     1     -22.465  65.138  27.444  1.00  0.00     0.061 C 
HETATM   15  C13 UNL     1     -22.099  63.652  27.569  1.00  0.00     0.124 C 
HETATM   16  N3  UNL     1     -23.282  62.819  27.804  1.00  0.00    -0.389 N 
HETATM   17  H11 UNL     1     -23.133  61.852  28.172  1.00  0.00     0.159 HD
ENDROOT
TORSDOF 0
ENDMDL
MODEL 9
REMARK VINA RESULT:      -6.4      3.215      5.454
REMARK  0 active torsions:
REMARK  status: ('A' for Active; 'I' for Inactive)
ROOT
HETATM    1  C1  UNL     1     -25.973  63.866  27.269  1.00  0.00     0.048 C 
HETATM    2  C2  UNL     1     -25.038  64.761  26.511  1.00  0.00    -0.061 A 
HETATM    3  C3  UNL     1     -25.491  65.503  25.410  1.00  0.00     0.009 A 
HETATM    4  C4  UNL     1     -24.603  66.306  24.690  1.00  0.00     0.030 A 
HETATM    5  C5  UNL     1     -23.258  66.393  25.073  1.00  0.00     0.038 A 
HETATM    6  C6  UNL     1     -22.806  65.701  26.213  1.00  0.00    -0.001 A 
HETATM    7  C7  UNL     1     -23.694  64.852  26.900  1.00  0.00     0.021 A 
HETATM    8  C8  UNL     1     -21.368  65.825  26.580  1.00  0.00    -0.013 C 
HETATM    9  C9  UNL     1     -20.930  65.908  27.864  1.00  0.00     0.131 C 
HETATM   10  C10 UNL     1     -19.527  66.020  28.184  1.00  0.00     0.111 C 
HETATM   11  N1  UNL     1     -18.403  66.110  28.443  1.00  0.00    -0.191 NA
HETATM   12  C11 UNL     1     -21.835  65.983  28.984  1.00  0.00     0.111 C 
HETATM   13  N2  UNL     1     -22.559  66.045  29.885  1.00  0.00    -0.191 NA
HETATM   14  C12 UNL     1     -20.444  66.004  25.396  1.00  0.00     0.061 C 
HETATM   15  C13 UNL     1     -20.898  67.215  24.569  1.00  0.00     0.124 C 
HETATM   16  N3  UNL     1     -22.337  67.175  24.292  1.00  0.00    -0.389 N 
HETATM   17  H11 UNL     1     -22.703  67.783  23.525  1.00  0.00     0.159 HD
ENDROOT
TORSDOF 0
ENDMDL
