MODEL 1
REMARK VINA RESULT:      -7.3      0.000      0.000
REMARK  3 active torsions:
REMARK  status: ('A' for Active; 'I' for Inactive)
REMARK    1  A    between atoms: C4_4  and  N1_5 
REMARK    2  A    between atoms: N2_6  and  C5_7 
REMARK    3  A    between atoms: C10_13  and  C11_14 
ROOT
HETATM    1  C5  UNL     1     -22.553  65.623  25.059  1.00  0.00     0.096 A 
HETATM    2  C6  UNL     1     -22.229  66.988  25.194  1.00  0.00     0.037 A 
HETATM    3  C7  UNL     1     -20.960  67.455  24.849  1.00  0.00     0.042 A 
HETATM    4  C8  UNL     1     -19.998  66.570  24.365  1.00  0.00     0.108 A 
HETATM    5  O1  UNL     1     -18.736  67.039  24.022  1.00  0.00    -0.192 OA
HETATM    6  C9  UNL     1     -20.301  65.215  24.225  1.00  0.00     0.061 A 
HETATM    7  C10 UNL     1     -21.577  64.719  24.568  1.00  0.00     0.074 A 
ENDROOT
BRANCH   1   8
HETATM    8  N2  UNL     1     -23.861  65.154  25.418  1.00  0.00    -0.149 NA
HETATM    9  N1  UNL     1     -24.913  65.843  25.221  1.00  0.00    -0.150 NA
BRANCH   9  10
HETATM   10  C4  UNL     1     -26.216  65.370  25.581  1.00  0.00     0.079 A 
HETATM   11  C3  UNL     1     -27.369  65.770  24.878  1.00  0.00     0.033 A 
HETATM   12  C2  UNL     1     -28.625  65.287  25.258  1.00  0.00     0.002 A 
HETATM   13  C1  UNL     1     -28.741  64.405  26.336  1.00  0.00     0.000 A 
HETATM   14  C13 UNL     1     -27.600  64.005  27.038  1.00  0.00     0.002 A 
HETATM   15  C12 UNL     1     -26.342  64.486  26.661  1.00  0.00     0.033 A 
ENDBRANCH   9  10
ENDBRANCH   1   8
BRANCH   7  16
HETATM   16  C11 UNL     1     -21.852  63.264  24.401  1.00  0.00     0.211 C 
HETATM   17  O2  UNL     1     -21.511  62.447  25.296  1.00  0.00    -0.644 OA
HETATM   18  O3  UNL     1     -22.486  62.774  23.265  1.00  0.00    -0.644 OA
ENDBRANCH   7  16
TORSDOF 3
ENDMDL
MODEL 2
REMARK VINA RESULT:      -7.3      2.977      6.858
REMARK  3 active torsions:
REMARK  status: ('A' for Active; 'I' for Inactive)
REMARK    1  A    between atoms: C4_4  and  N1_5 
REMARK    2  A    between atoms: N2_6  and  C5_7 
REMARK    3  A    between atoms: C10_13  and  C11_14 
ROOT
HETATM    1  C5  UNL     1     -25.489  65.848  25.119  1.00  0.00     0.096 A 
HETATM    2  C6  UNL     1     -25.788  64.956  26.168  1.00  0.00     0.037 A 
HETATM    3  C7  UNL     1     -27.074  64.434  26.314  1.00  0.00     0.042 A 
HETATM    4  C8  UNL     1     -28.079  64.793  25.416  1.00  0.00     0.108 A 
HETATM    5  O1  UNL     1     -29.357  64.271  25.564  1.00  0.00    -0.192 OA
HETATM    6  C9  UNL     1     -27.801  65.676  24.372  1.00  0.00     0.061 A 
HETATM    7  C10 UNL     1     -26.509  66.217  24.204  1.00  0.00     0.074 A 
ENDROOT
BRANCH   1   8
HETATM    8  N2  UNL     1     -24.163  66.379  24.981  1.00  0.00    -0.149 NA
HETATM    9  N1  UNL     1     -23.132  65.767  25.410  1.00  0.00    -0.150 NA
BRANCH   9  10
HETATM   10  C4  UNL     1     -21.812  66.302  25.268  1.00  0.00     0.079 A 
HETATM   11  C3  UNL     1     -20.760  65.541  24.724  1.00  0.00     0.033 A 
HETATM   12  C2  UNL     1     -19.482  66.096  24.600  1.00  0.00     0.002 A 
HETATM   13  C1  UNL     1     -19.245  67.409  25.016  1.00  0.00     0.000 A 
HETATM   14  C13 UNL     1     -20.286  68.170  25.558  1.00  0.00     0.002 A 
HETATM   15  C12 UNL     1     -21.564  67.618  25.682  1.00  0.00     0.033 A 
ENDBRANCH   9  10
ENDBRANCH   1   8
BRANCH   7  16
HETATM   16  C11 UNL     1     -26.262  67.155  23.074  1.00  0.00     0.211 C 
HETATM   17  O2  UNL     1     -26.450  66.781  21.886  1.00  0.00    -0.644 OA
HETATM   18  O3  UNL     1     -25.822  68.455  23.296  1.00  0.00    -0.644 OA
ENDBRANCH   7  16
TORSDOF 3
ENDMDL
MODEL 3
REMARK VINA RESULT:      -7.0      1.472      2.028
REMARK  3 active torsions:
REMARK  status: ('A' for Active; 'I' for Inactive)
REMARK    1  A    between atoms: C4_4  and  N1_5 
REMARK    2  A    between atoms: N2_6  and  C5_7 
REMARK    3  A    between atoms: C10_13  and  C11_14 
ROOT
HETATM    1  C5  UNL     1     -22.500  65.072  25.183  1.00  0.00     0.096 A 
HETATM    2  C6  UNL     1     -22.270  66.448  25.384  1.00  0.00     0.037 A 
HETATM    3  C7  UNL     1     -21.122  67.059  24.878  1.00  0.00     0.042 A 
HETATM    4  C8  UNL     1     -20.188  66.308  24.165  1.00  0.00     0.108 A 
HETATM    5  O1  UNL     1     -19.046  66.919  23.663  1.00  0.00    -0.192 OA
HETATM    6  C9  UNL     1     -20.399  64.944  23.957  1.00  0.00     0.061 A 
HETATM    7  C10 UNL     1     -21.552  64.304  24.459  1.00  0.00     0.074 A 
ENDROOT
BRANCH   1   8
HETATM    8  N2  UNL     1     -23.684  64.455  25.708  1.00  0.00    -0.149 NA
HETATM    9  N1  UNL     1     -23.748  63.992  26.892  1.00  0.00    -0.150 NA
BRANCH   9  10
HETATM   10  C4  UNL     1     -24.933  63.378  27.411  1.00  0.00     0.079 A 
HETATM   11  C3  UNL     1     -26.213  63.901  27.147  1.00  0.00     0.033 A 
HETATM   12  C2  UNL     1     -27.349  63.275  27.669  1.00  0.00     0.002 A 
HETATM   13  C1  UNL     1     -27.218  62.127  28.455  1.00  0.00     0.000 A 
HETATM   14  C13 UNL     1     -25.949  61.603  28.721  1.00  0.00     0.002 A 
HETATM   15  C12 UNL     1     -24.811  62.227  28.200  1.00  0.00     0.033 A 
ENDBRANCH   9  10
ENDBRANCH   1   8
BRANCH   7  16
HETATM   16  C11 UNL     1     -21.732  62.846  24.211  1.00  0.00     0.211 C 
HETATM   17  O2  UNL     1     -21.357  62.005  25.071  1.00  0.00    -0.644 OA
HETATM   18  O3  UNL     1     -22.311  62.379  23.037  1.00  0.00    -0.644 OA
ENDBRANCH   7  16
TORSDOF 3
ENDMDL
MODEL 4
REMARK VINA RESULT:      -6.9      3.176      6.233
REMARK  3 active torsions:
REMARK  status: ('A' for Active; 'I' for Inactive)
REMARK    1  A    between atoms: C4_4  and  N1_5 
REMARK    2  A    between atoms: N2_6  and  C5_7 
REMARK    3  A    between atoms: C10_13  and  C11_14 
ROOT
HETATM    1  C5  UNL     1     -25.148  65.629  24.776  1.00  0.00     0.096 A 
HETATM    2  C6  UNL     1     -25.257  66.517  23.687  1.00  0.00     0.037 A 
HETATM    3  C7  UNL     1     -26.484  67.098  23.363  1.00  0.00     0.042 A 
HETATM    4  C8  UNL     1     -27.617  66.804  24.120  1.00  0.00     0.108 A 
HETATM    5  O1  UNL     1     -28.836  67.385  23.795  1.00  0.00    -0.192 OA
HETATM    6  C9  UNL     1     -27.527  65.928  25.202  1.00  0.00     0.061 A 
HETATM    7  C10 UNL     1     -26.298  65.327  25.549  1.00  0.00     0.074 A 
ENDROOT
BRANCH   1   8
HETATM    8  N2  UNL     1     -23.881  65.038  25.099  1.00  0.00    -0.149 NA
HETATM    9  N1  UNL     1     -23.422  64.022  24.483  1.00  0.00    -0.150 NA
BRANCH   9  10
HETATM   10  C4  UNL     1     -22.157  63.436  24.810  1.00  0.00     0.079 A 
HETATM   11  C3  UNL     1     -21.501  62.555  23.929  1.00  0.00     0.033 A 
HETATM   12  C2  UNL     1     -20.266  62.002  24.282  1.00  0.00     0.002 A 
HETATM   13  C1  UNL     1     -19.678  62.322  25.509  1.00  0.00     0.000 A 
HETATM   14  C13 UNL     1     -20.325  63.197  26.387  1.00  0.00     0.002 A 
HETATM   15  C12 UNL     1     -21.560  63.752  26.038  1.00  0.00     0.033 A 
ENDBRANCH   9  10
ENDBRANCH   1   8
BRANCH   7  16
HETATM   16  C11 UNL     1     -26.254  64.398  26.712  1.00  0.00     0.211 C 
HETATM   17  O2  UNL     1     -27.110  63.481  26.826  1.00  0.00    -0.644 OA
HETATM   18  O3  UNL     1     -25.278  64.516  27.695  1.00  0.00    -0.644 OA
ENDBRANCH   7  16
TORSDOF 3
ENDMDL
MODEL 5
REMARK VINA RESULT:      -6.9      3.787      6.158
REMARK  3 active torsions:
REMARK  status: ('A' for Active; 'I' for Inactive)
REMARK    1  A    between atoms: C4_4  and  N1_5 
REMARK    2  A    between atoms: N2_6  and  C5_7 
REMARK    3  A    between atoms: C10_13  and  C11_14 
ROOT
HETATM    1  C5  UNL     1     -25.486  65.463  25.611  1.00  0.00     0.096 A 
HETATM    2  C6  UNL     1     -25.037  66.177  24.482  1.00  0.00     0.037 A 
HETATM    3  C7  UNL     1     -25.929  66.553  23.477  1.00  0.00     0.042 A 
HETATM    4  C8  UNL     1     -27.280  66.223  23.583  1.00  0.00     0.108 A 
HETATM    5  O1  UNL     1     -28.165  66.599  22.580  1.00  0.00    -0.192 OA
HETATM    6  C9  UNL     1     -27.742  65.516  24.694  1.00  0.00     0.061 A 
HETATM    7  C10 UNL     1     -26.859  65.126  25.723  1.00  0.00     0.074 A 
ENDROOT
BRANCH   1   8
HETATM    8  N2  UNL     1     -24.559  65.083  26.638  1.00  0.00    -0.149 NA
HETATM    9  N1  UNL     1     -23.602  64.269  26.430  1.00  0.00    -0.150 NA
BRANCH   9  10
HETATM   10  C4  UNL     1     -22.680  63.893  27.459  1.00  0.00     0.079 A 
HETATM   11  C3  UNL     1     -21.329  63.618  27.177  1.00  0.00     0.033 A 
HETATM   12  C2  UNL     1     -20.457  63.254  28.207  1.00  0.00     0.002 A 
HETATM   13  C1  UNL     1     -20.923  63.163  29.521  1.00  0.00     0.000 A 
HETATM   14  C13 UNL     1     -22.264  63.434  29.808  1.00  0.00     0.002 A 
HETATM   15  C12 UNL     1     -23.139  63.799  28.779  1.00  0.00     0.033 A 
ENDBRANCH   9  10
ENDBRANCH   1   8
BRANCH   7  16
HETATM   16  C11 UNL     1     -27.401  64.373  26.888  1.00  0.00     0.211 C 
HETATM   17  O2  UNL     1     -26.905  63.260  27.211  1.00  0.00    -0.644 OA
HETATM   18  O3  UNL     1     -28.456  64.870  27.643  1.00  0.00    -0.644 OA
ENDBRANCH   7  16
TORSDOF 3
ENDMDL
MODEL 6
REMARK VINA RESULT:      -6.9      2.666      6.554
REMARK  3 active torsions:
REMARK  status: ('A' for Active; 'I' for Inactive)
REMARK    1  A    between atoms: C4_4  and  N1_5 
REMARK    2  A    between atoms: N2_6  and  C5_7 
REMARK    3  A    between atoms: C10_13  and  C11_14 
ROOT
HETATM    1  C5  UNL     1     -25.538  65.851  25.088  1.00  0.00     0.096 A 
HETATM    2  C6  UNL     1     -26.100  66.551  24.002  1.00  0.00     0.037 A 
HETATM    3  C7  UNL     1     -27.451  66.407  23.685  1.00  0.00     0.042 A 
HETATM    4  C8  UNL     1     -28.260  65.564  24.446  1.00  0.00     0.108 A 
HETATM    5  O1  UNL     1     -29.605  65.423  24.128  1.00  0.00    -0.192 OA
HETATM    6  C9  UNL     1     -27.721  64.863  25.526  1.00  0.00     0.061 A 
HETATM    7  C10 UNL     1     -26.357  64.993  25.865  1.00  0.00     0.074 A 
ENDROOT
BRANCH   1   8
HETATM    8  N2  UNL     1     -24.146  66.008  25.404  1.00  0.00    -0.149 NA
HETATM    9  N1  UNL     1     -23.345  66.661  24.661  1.00  0.00    -0.150 NA
BRANCH   9  10
HETATM   10  C4  UNL     1     -21.958  66.814  24.982  1.00  0.00     0.079 A 
HETATM   11  C3  UNL     1     -21.015  65.810  24.685  1.00  0.00     0.033 A 
HETATM   12  C2  UNL     1     -19.668  65.994  25.013  1.00  0.00     0.002 A 
HETATM   13  C1  UNL     1     -19.253  67.174  25.635  1.00  0.00     0.000 A 
HETATM   14  C13 UNL     1     -20.184  68.174  25.932  1.00  0.00     0.002 A 
HETATM   15  C12 UNL     1     -21.531  67.993  25.606  1.00  0.00     0.033 A 
ENDBRANCH   9  10
ENDBRANCH   1   8
BRANCH   7  16
HETATM   16  C11 UNL     1     -25.828  64.224  27.026  1.00  0.00     0.211 C 
HETATM   17  O2  UNL     1     -26.232  64.476  28.192  1.00  0.00    -0.644 OA
HETATM   18  O3  UNL     1     -24.884  63.218  26.857  1.00  0.00    -0.644 OA
ENDBRANCH   7  16
TORSDOF 3
ENDMDL
MODEL 7
REMARK VINA RESULT:      -6.6      2.559      3.730
REMARK  3 active torsions:
REMARK  status: ('A' for Active; 'I' for Inactive)
REMARK    1  A    between atoms: C4_4  and  N1_5 
REMARK    2  A    between atoms: N2_6  and  C5_7 
REMARK    3  A    between atoms: C10_13  and  C11_14 
ROOT
HETATM    1  C5  UNL     1     -19.925  63.883  23.620  1.00  0.00     0.096 A 
HETATM    2  C6  UNL     1     -19.381  64.696  22.606  1.00  0.00     0.037 A 
HETATM    3  C7  UNL     1     -18.036  64.589  22.252  1.00  0.00     0.042 A 
HETATM    4  C8  UNL     1     -17.214  63.671  22.904  1.00  0.00     0.108 A 
HETATM    5  O1  UNL     1     -15.875  63.567  22.550  1.00  0.00    -0.192 OA
HETATM    6  C9  UNL     1     -17.735  62.858  23.912  1.00  0.00     0.061 A 
HETATM    7  C10 UNL     1     -19.092  62.948  24.287  1.00  0.00     0.074 A 
ENDROOT
BRANCH   1   8
HETATM    8  N2  UNL     1     -21.311  64.003  23.975  1.00  0.00    -0.149 NA
HETATM    9  N1  UNL     1     -21.720  64.800  24.879  1.00  0.00    -0.150 NA
BRANCH   9  10
HETATM   10  C4  UNL     1     -23.104  64.915  25.228  1.00  0.00     0.079 A 
HETATM   11  C3  UNL     1     -23.717  64.021  26.127  1.00  0.00     0.033 A 
HETATM   12  C2  UNL     1     -25.071  64.164  26.445  1.00  0.00     0.002 A 
HETATM   13  C1  UNL     1     -25.821  65.194  25.872  1.00  0.00     0.000 A 
HETATM   14  C13 UNL     1     -25.218  66.084  24.978  1.00  0.00     0.002 A 
HETATM   15  C12 UNL     1     -23.864  65.944  24.658  1.00  0.00     0.033 A 
ENDBRANCH   9  10
ENDBRANCH   1   8
BRANCH   7  16
HETATM   16  C11 UNL     1     -19.601  62.059  25.368  1.00  0.00     0.211 C 
HETATM   17  O2  UNL     1     -20.011  60.899  25.096  1.00  0.00    -0.644 OA
HETATM   18  O3  UNL     1     -19.638  62.479  26.693  1.00  0.00    -0.644 OA
ENDBRANCH   7  16
TORSDOF 3
ENDMDL
MODEL 8
REMARK VINA RESULT:      -6.6      1.650      2.257
REMARK  3 active torsions:
REMARK  status: ('A' for Active; 'I' for Inactive)
REMARK    1  A    between atoms: C4_4  and  N1_5 
REMARK    2  A    between atoms: N2_6  and  C5_7 
REMARK    3  A    between atoms: C10_13  and  C11_14 
ROOT
HETATM    1  C5  UNL     1     -20.936  64.919  24.393  1.00  0.00     0.096 A 
HETATM    2  C6  UNL     1     -20.470  66.238  24.565  1.00  0.00     0.037 A 
HETATM    3  C7  UNL     1     -19.402  66.719  23.808  1.00  0.00     0.042 A 
HETATM    4  C8  UNL     1     -18.783  65.895  22.870  1.00  0.00     0.108 A 
HETATM    5  O1  UNL     1     -17.719  66.378  22.118  1.00  0.00    -0.192 OA
HETATM    6  C9  UNL     1     -19.230  64.586  22.686  1.00  0.00     0.061 A 
HETATM    7  C10 UNL     1     -20.308  64.076  23.440  1.00  0.00     0.074 A 
ENDROOT
BRANCH   1   8
HETATM    8  N2  UNL     1     -22.036  64.434  25.177  1.00  0.00    -0.149 NA
HETATM    9  N1  UNL     1     -23.196  64.954  25.124  1.00  0.00    -0.150 NA
BRANCH   9  10
HETATM   10  C4  UNL     1     -24.290  64.467  25.909  1.00  0.00     0.079 A 
HETATM   11  C3  UNL     1     -25.552  65.090  25.888  1.00  0.00     0.033 A 
HETATM   12  C2  UNL     1     -26.597  64.586  26.668  1.00  0.00     0.002 A 
HETATM   13  C1  UNL     1     -26.393  63.461  27.471  1.00  0.00     0.000 A 
HETATM   14  C13 UNL     1     -25.141  62.838  27.497  1.00  0.00     0.002 A 
HETATM   15  C12 UNL     1     -24.094  63.339  26.718  1.00  0.00     0.033 A 
ENDBRANCH   9  10
ENDBRANCH   1   8
BRANCH   7  16
HETATM   16  C11 UNL     1     -20.749  62.672  23.207  1.00  0.00     0.211 C 
HETATM   17  O2  UNL     1     -21.809  62.437  22.569  1.00  0.00    -0.644 OA
HETATM   18  O3  UNL     1     -20.011  61.594  23.683  1.00  0.00    -0.644 OA
ENDBRANCH   7  16
TORSDOF 3
ENDMDL
MODEL 9
REMARK VINA RESULT:      -6.6      2.805      6.694
REMARK  3 active torsions:
REMARK  status: ('A' for Active; 'I' for Inactive)
REMARK    1  A    between atoms: C4_4  and  N1_5 
REMARK    2  A    between atoms: N2_6  and  C5_7 
REMARK    3  A    between atoms: C10_13  and  C11_14 
ROOT
HETATM    1  C5  UNL     1     -24.379  64.236  26.077  1.00  0.00     0.096 A 
HETATM    2  C6  UNL     1     -24.919  63.366  27.046  1.00  0.00     0.037 A 
HETATM    3  C7  UNL     1     -26.267  63.441  27.396  1.00  0.00     0.042 A 
HETATM    4  C8  UNL     1     -27.096  64.383  26.788  1.00  0.00     0.108 A 
HETATM    5  O1  UNL     1     -28.438  64.455  27.139  1.00  0.00    -0.192 OA
HETATM    6  C9  UNL     1     -26.578  65.253  25.827  1.00  0.00     0.061 A 
HETATM    7  C10 UNL     1     -25.218  65.196  25.455  1.00  0.00     0.074 A 
ENDROOT
BRANCH   1   8
HETATM    8  N2  UNL     1     -22.990  64.149  25.725  1.00  0.00    -0.149 NA
HETATM    9  N1  UNL     1     -22.539  63.262  24.932  1.00  0.00    -0.150 NA
BRANCH   9  10
HETATM   10  C4  UNL     1     -21.152  63.180  24.584  1.00  0.00     0.079 A 
HETATM   11  C3  UNL     1     -20.325  64.320  24.573  1.00  0.00     0.033 A 
HETATM   12  C2  UNL     1     -18.974  64.202  24.229  1.00  0.00     0.002 A 
HETATM   13  C1  UNL     1     -18.442  62.955  23.895  1.00  0.00     0.000 A 
HETATM   14  C13 UNL     1     -19.259  61.820  23.904  1.00  0.00     0.002 A 
HETATM   15  C12 UNL     1     -20.609  61.934  24.248  1.00  0.00     0.033 A 
ENDBRANCH   9  10
ENDBRANCH   1   8
BRANCH   7  16
HETATM   16  C11 UNL     1     -24.713  66.146  24.425  1.00  0.00     0.211 C 
HETATM   17  O2  UNL     1     -23.728  66.890  24.676  1.00  0.00    -0.644 OA
HETATM   18  O3  UNL     1     -25.307  66.237  23.172  1.00  0.00    -0.644 OA
ENDBRANCH   7  16
TORSDOF 3
ENDMDL
