MODEL 1
REMARK VINA RESULT:      -9.8      0.000      0.000
REMARK  0 active torsions:
REMARK  status: ('A' for Active; 'I' for Inactive)
ROOT
HETATM    1  O1  UNL     1     -28.589  67.210  23.802  1.00  0.00    -0.256 OA
HETATM    2  C1  UNL     1     -27.513  66.658  24.156  1.00  0.00     0.325 A 
HETATM    3  O2  UNL     1     -27.523  65.793  25.168  1.00  0.00    -0.269 OA
HETATM    4  C2  UNL     1     -26.425  65.170  25.597  1.00  0.00     0.127 A 
HETATM    5  C3  UNL     1     -25.189  65.422  24.967  1.00  0.00     0.117 A 
HETATM    6  C4  UNL     1     -25.144  66.322  23.903  1.00  0.00     0.086 A 
HETATM    7  C5  UNL     1     -26.318  66.949  23.488  1.00  0.00     0.185 A 
HETATM    8  O3  UNL     1     -26.295  67.850  22.430  1.00  0.00    -0.185 OA
HETATM    9  O4  UNL     1     -24.082  64.815  25.375  1.00  0.00    -0.272 OA
HETATM   10  C6  UNL     1     -24.066  63.950  26.383  1.00  0.00     0.299 A 
HETATM   11  O5  UNL     1     -22.972  63.416  26.709  1.00  0.00    -0.259 OA
HETATM   12  C7  UNL     1     -25.255  63.636  27.073  1.00  0.00     0.058 A 
HETATM   13  C8  UNL     1     -25.261  62.723  28.143  1.00  0.00     0.061 A 
HETATM   14  C9  UNL     1     -26.449  62.427  28.811  1.00  0.00     0.147 A 
HETATM   15  O6  UNL     1     -26.439  61.522  29.867  1.00  0.00    -0.189 OA
HETATM   16  C10 UNL     1     -27.644  63.037  28.423  1.00  0.00     0.180 A 
HETATM   17  O7  UNL     1     -28.824  62.736  29.096  1.00  0.00    -0.186 OA
HETATM   18  C11 UNL     1     -27.661  63.949  27.361  1.00  0.00     0.160 A 
HETATM   19  O8  UNL     1     -28.872  64.536  27.004  1.00  0.00    -0.188 OA
HETATM   20  C12 UNL     1     -26.464  64.260  26.672  1.00  0.00     0.057 A 
ENDROOT
TORSDOF 0
ENDMDL
MODEL 2
REMARK VINA RESULT:      -9.7      0.755      5.276
REMARK  0 active torsions:
REMARK  status: ('A' for Active; 'I' for Inactive)
ROOT
HETATM    1  O1  UNL     1     -28.587  62.649  28.871  1.00  0.00    -0.256 OA
HETATM    2  C1  UNL     1     -27.488  62.922  28.319  1.00  0.00     0.325 A 
HETATM    3  O2  UNL     1     -27.456  63.805  27.324  1.00  0.00    -0.269 OA
HETATM    4  C2  UNL     1     -26.330  64.144  26.694  1.00  0.00     0.127 A 
HETATM    5  C3  UNL     1     -25.110  63.555  27.081  1.00  0.00     0.117 A 
HETATM    6  C4  UNL     1     -25.109  62.625  28.121  1.00  0.00     0.086 A 
HETATM    7  C5  UNL     1     -26.310  62.303  28.751  1.00  0.00     0.185 A 
HETATM    8  O3  UNL     1     -26.330  61.378  29.790  1.00  0.00    -0.185 OA
HETATM    9  O4  UNL     1     -23.976  63.874  26.470  1.00  0.00    -0.272 OA
HETATM   10  C6  UNL     1     -23.919  64.752  25.475  1.00  0.00     0.299 A 
HETATM   11  O5  UNL     1     -22.801  65.001  24.947  1.00  0.00    -0.259 OA
HETATM   12  C7  UNL     1     -25.090  65.392  25.020  1.00  0.00     0.058 A 
HETATM   13  C8  UNL     1     -25.052  66.325  23.966  1.00  0.00     0.061 A 
HETATM   14  C9  UNL     1     -26.223  66.946  23.532  1.00  0.00     0.147 A 
HETATM   15  O6  UNL     1     -26.169  67.866  22.491  1.00  0.00    -0.189 OA
HETATM   16  C10 UNL     1     -27.444  66.647  24.140  1.00  0.00     0.180 A 
HETATM   17  O7  UNL     1     -28.607  67.271  23.700  1.00  0.00    -0.186 OA
HETATM   18  C11 UNL     1     -27.505  65.722  25.190  1.00  0.00     0.160 A 
HETATM   19  O8  UNL     1     -28.741  65.450  25.769  1.00  0.00    -0.188 OA
HETATM   20  C12 UNL     1     -26.325  65.082  25.642  1.00  0.00     0.057 A 
ENDROOT
TORSDOF 0
ENDMDL
MODEL 3
REMARK VINA RESULT:      -9.2      2.099      5.061
REMARK  0 active torsions:
REMARK  status: ('A' for Active; 'I' for Inactive)
ROOT
HETATM    1  O1  UNL     1     -21.261  67.066  24.297  1.00  0.00    -0.256 OA
HETATM    2  C1  UNL     1     -22.064  66.471  25.064  1.00  0.00     0.325 A 
HETATM    3  O2  UNL     1     -23.343  66.359  24.714  1.00  0.00    -0.269 OA
HETATM    4  C2  UNL     1     -24.250  65.743  25.474  1.00  0.00     0.127 A 
HETATM    5  C3  UNL     1     -23.859  65.178  26.705  1.00  0.00     0.117 A 
HETATM    6  C4  UNL     1     -22.525  65.278  27.101  1.00  0.00     0.086 A 
HETATM    7  C5  UNL     1     -21.613  65.931  26.274  1.00  0.00     0.185 A 
HETATM    8  O3  UNL     1     -20.280  66.041  26.651  1.00  0.00    -0.185 OA
HETATM    9  O4  UNL     1     -24.741  64.560  27.480  1.00  0.00    -0.272 OA
HETATM   10  C6  UNL     1     -26.023  64.436  27.152  1.00  0.00     0.299 A 
HETATM   11  O5  UNL     1     -26.797  63.834  27.944  1.00  0.00    -0.259 OA
HETATM   12  C7  UNL     1     -26.504  64.970  25.940  1.00  0.00     0.058 A 
HETATM   13  C8  UNL     1     -27.858  64.850  25.573  1.00  0.00     0.061 A 
HETATM   14  C9  UNL     1     -28.312  65.386  24.369  1.00  0.00     0.147 A 
HETATM   15  O6  UNL     1     -29.653  65.259  24.021  1.00  0.00    -0.189 OA
HETATM   16  C10 UNL     1     -27.427  66.047  23.514  1.00  0.00     0.180 A 
HETATM   17  O7  UNL     1     -27.889  66.579  22.315  1.00  0.00    -0.186 OA
HETATM   18  C11 UNL     1     -26.076  66.178  23.859  1.00  0.00     0.160 A 
HETATM   19  O8  UNL     1     -25.224  66.843  22.982  1.00  0.00    -0.188 OA
HETATM   20  C12 UNL     1     -25.598  65.640  25.079  1.00  0.00     0.057 A 
ENDROOT
TORSDOF 0
ENDMDL
MODEL 4
REMARK VINA RESULT:      -9.0      1.375      6.143
REMARK  0 active torsions:
REMARK  status: ('A' for Active; 'I' for Inactive)
ROOT
HETATM    1  O1  UNL     1     -24.289  62.978  29.461  1.00  0.00    -0.256 OA
HETATM    2  C1  UNL     1     -25.325  63.165  28.769  1.00  0.00     0.325 A 
HETATM    3  O2  UNL     1     -25.270  63.972  27.712  1.00  0.00    -0.269 OA
HETATM    4  C2  UNL     1     -26.325  64.217  26.934  1.00  0.00     0.127 A 
HETATM    5  C3  UNL     1     -27.562  63.606  27.223  1.00  0.00     0.117 A 
HETATM    6  C4  UNL     1     -27.654  62.754  28.324  1.00  0.00     0.086 A 
HETATM    7  C5  UNL     1     -26.524  62.527  29.109  1.00  0.00     0.185 A 
HETATM    8  O3  UNL     1     -26.594  61.682  30.210  1.00  0.00    -0.185 OA
HETATM    9  O4  UNL     1     -28.627  63.833  26.465  1.00  0.00    -0.272 OA
HETATM   10  C6  UNL     1     -28.597  64.635  25.405  1.00  0.00     0.299 A 
HETATM   11  O5  UNL     1     -29.653  64.798  24.736  1.00  0.00    -0.259 OA
HETATM   12  C7  UNL     1     -27.403  65.289  25.040  1.00  0.00     0.058 A 
HETATM   13  C8  UNL     1     -27.349  66.142  23.922  1.00  0.00     0.061 A 
HETATM   14  C9  UNL     1     -26.157  66.780  23.578  1.00  0.00     0.147 A 
HETATM   15  O6  UNL     1     -26.120  67.620  22.470  1.00  0.00    -0.189 OA
HETATM   16  C10 UNL     1     -25.005  66.576  24.342  1.00  0.00     0.180 A 
HETATM   17  O7  UNL     1     -23.821  67.217  23.992  1.00  0.00    -0.186 OA
HETATM   18  C11 UNL     1     -25.037  65.731  25.458  1.00  0.00     0.160 A 
HETATM   19  O8  UNL     1     -23.868  65.554  26.194  1.00  0.00    -0.188 OA
HETATM   20  C12 UNL     1     -26.239  65.077  25.821  1.00  0.00     0.057 A 
ENDROOT
TORSDOF 0
ENDMDL
MODEL 5
REMARK VINA RESULT:      -9.0      1.609      5.867
REMARK  0 active torsions:
REMARK  status: ('A' for Active; 'I' for Inactive)
ROOT
HETATM    1  O1  UNL     1     -21.468  65.028  27.477  1.00  0.00    -0.256 OA
HETATM    2  C1  UNL     1     -22.701  64.796  27.597  1.00  0.00     0.325 A 
HETATM    3  O2  UNL     1     -23.537  65.180  26.635  1.00  0.00    -0.269 OA
HETATM    4  C2  UNL     1     -24.852  64.968  26.693  1.00  0.00     0.127 A 
HETATM    5  C3  UNL     1     -25.404  64.310  27.811  1.00  0.00     0.117 A 
HETATM    6  C4  UNL     1     -24.555  63.894  28.837  1.00  0.00     0.086 A 
HETATM    7  C5  UNL     1     -23.186  64.137  28.732  1.00  0.00     0.185 A 
HETATM    8  O3  UNL     1     -22.323  63.731  29.744  1.00  0.00    -0.185 OA
HETATM    9  O4  UNL     1     -26.709  64.088  27.893  1.00  0.00    -0.272 OA
HETATM   10  C6  UNL     1     -27.563  64.463  26.947  1.00  0.00     0.299 A 
HETATM   11  O5  UNL     1     -28.789  64.213  27.101  1.00  0.00    -0.259 OA
HETATM   12  C7  UNL     1     -27.102  65.127  25.792  1.00  0.00     0.058 A 
HETATM   13  C8  UNL     1     -27.989  65.532  24.778  1.00  0.00     0.061 A 
HETATM   14  C9  UNL     1     -27.511  66.188  23.644  1.00  0.00     0.147 A 
HETATM   15  O6  UNL     1     -28.400  66.582  22.650  1.00  0.00    -0.189 OA
HETATM   16  C10 UNL     1     -26.145  66.448  23.505  1.00  0.00     0.180 A 
HETATM   17  O7  UNL     1     -25.678  67.103  22.371  1.00  0.00    -0.186 OA
HETATM   18  C11 UNL     1     -25.245  66.053  24.502  1.00  0.00     0.160 A 
HETATM   19  O8  UNL     1     -23.892  66.331  24.328  1.00  0.00    -0.188 OA
HETATM   20  C12 UNL     1     -25.714  65.387  25.660  1.00  0.00     0.057 A 
ENDROOT
TORSDOF 0
ENDMDL
MODEL 6
REMARK VINA RESULT:      -8.6      2.046      4.847
REMARK  0 active torsions:
REMARK  status: ('A' for Active; 'I' for Inactive)
ROOT
HETATM    1  O1  UNL     1     -22.309  64.296  28.364  1.00  0.00    -0.256 OA
HETATM    2  C1  UNL     1     -22.653  64.909  27.319  1.00  0.00     0.325 A 
HETATM    3  O2  UNL     1     -23.930  64.901  26.945  1.00  0.00    -0.269 OA
HETATM    4  C2  UNL     1     -24.367  65.528  25.851  1.00  0.00     0.127 A 
HETATM    5  C3  UNL     1     -23.456  66.235  25.041  1.00  0.00     0.117 A 
HETATM    6  C4  UNL     1     -22.109  66.263  25.406  1.00  0.00     0.086 A 
HETATM    7  C5  UNL     1     -21.699  65.594  26.558  1.00  0.00     0.185 A 
HETATM    8  O3  UNL     1     -20.361  65.610  26.938  1.00  0.00    -0.185 OA
HETATM    9  O4  UNL     1     -23.865  66.866  23.948  1.00  0.00    -0.272 OA
HETATM   10  C6  UNL     1     -25.134  66.872  23.555  1.00  0.00     0.299 A 
HETATM   11  O5  UNL     1     -25.441  67.496  22.503  1.00  0.00    -0.259 OA
HETATM   12  C7  UNL     1     -26.116  66.191  24.302  1.00  0.00     0.058 A 
HETATM   13  C8  UNL     1     -27.465  66.185  23.903  1.00  0.00     0.061 A 
HETATM   14  C9  UNL     1     -28.421  65.504  24.658  1.00  0.00     0.147 A 
HETATM   15  O6  UNL     1     -29.750  65.508  24.250  1.00  0.00    -0.189 OA
HETATM   16  C10 UNL     1     -28.045  64.823  25.818  1.00  0.00     0.180 A 
HETATM   17  O7  UNL     1     -29.005  64.147  26.564  1.00  0.00    -0.186 OA
HETATM   18  C11 UNL     1     -26.708  64.817  26.233  1.00  0.00     0.160 A 
HETATM   19  O8  UNL     1     -26.373  64.126  27.395  1.00  0.00    -0.188 OA
HETATM   20  C12 UNL     1     -25.726  65.502  25.478  1.00  0.00     0.057 A 
ENDROOT
TORSDOF 0
ENDMDL
MODEL 7
REMARK VINA RESULT:      -8.6      1.709      3.838
REMARK  0 active torsions:
REMARK  status: ('A' for Active; 'I' for Inactive)
ROOT
HETATM    1  O1  UNL     1     -25.621  67.361  22.500  1.00  0.00    -0.256 OA
HETATM    2  C1  UNL     1     -26.034  66.639  23.446  1.00  0.00     0.325 A 
HETATM    3  O2  UNL     1     -25.188  66.263  24.402  1.00  0.00    -0.269 OA
HETATM    4  C2  UNL     1     -25.554  65.500  25.433  1.00  0.00     0.127 A 
HETATM    5  C3  UNL     1     -26.890  65.062  25.536  1.00  0.00     0.117 A 
HETATM    6  C4  UNL     1     -27.803  65.440  24.551  1.00  0.00     0.086 A 
HETATM    7  C5  UNL     1     -27.374  66.238  23.492  1.00  0.00     0.185 A 
HETATM    8  O3  UNL     1     -28.268  66.625  22.500  1.00  0.00    -0.185 OA
HETATM    9  O4  UNL     1     -27.280  64.303  26.552  1.00  0.00    -0.272 OA
HETATM   10  C6  UNL     1     -26.454  63.914  27.517  1.00  0.00     0.299 A 
HETATM   11  O5  UNL     1     -26.903  63.192  28.448  1.00  0.00    -0.259 OA
HETATM   12  C7  UNL     1     -25.099  64.303  27.496  1.00  0.00     0.058 A 
HETATM   13  C8  UNL     1     -24.207  63.902  28.508  1.00  0.00     0.061 A 
HETATM   14  C9  UNL     1     -22.871  64.300  28.468  1.00  0.00     0.147 A 
HETATM   15  O6  UNL     1     -22.002  63.896  29.476  1.00  0.00    -0.189 OA
HETATM   16  C10 UNL     1     -22.406  65.100  27.422  1.00  0.00     0.180 A 
HETATM   17  O7  UNL     1     -21.072  65.491  27.390  1.00  0.00    -0.186 OA
HETATM   18  C11 UNL     1     -23.277  65.510  26.405  1.00  0.00     0.160 A 
HETATM   19  O8  UNL     1     -22.776  66.307  25.379  1.00  0.00    -0.188 OA
HETATM   20  C12 UNL     1     -24.637  65.116  26.430  1.00  0.00     0.057 A 
ENDROOT
TORSDOF 0
ENDMDL
MODEL 8
REMARK VINA RESULT:      -8.2      1.777      5.184
REMARK  0 active torsions:
REMARK  status: ('A' for Active; 'I' for Inactive)
ROOT
HETATM    1  O1  UNL     1     -25.892  63.038  29.976  1.00  0.00    -0.256 OA
HETATM    2  C1  UNL     1     -25.270  63.673  29.083  1.00  0.00     0.325 A 
HETATM    3  O2  UNL     1     -25.920  64.081  27.996  1.00  0.00    -0.269 OA
HETATM    4  C2  UNL     1     -25.328  64.759  27.011  1.00  0.00     0.127 A 
HETATM    5  C3  UNL     1     -23.956  65.068  27.105  1.00  0.00     0.117 A 
HETATM    6  C4  UNL     1     -23.246  64.655  28.232  1.00  0.00     0.086 A 
HETATM    7  C5  UNL     1     -23.907  63.950  29.236  1.00  0.00     0.185 A 
HETATM    8  O3  UNL     1     -23.217  63.530  30.368  1.00  0.00    -0.185 OA
HETATM    9  O4  UNL     1     -23.343  65.740  26.139  1.00  0.00    -0.272 OA
HETATM   10  C6  UNL     1     -23.970  66.157  25.044  1.00  0.00     0.299 A 
HETATM   11  O5  UNL     1     -23.315  66.791  24.173  1.00  0.00    -0.259 OA
HETATM   12  C7  UNL     1     -25.343  65.893  24.864  1.00  0.00     0.058 A 
HETATM   13  C8  UNL     1     -26.026  66.326  23.712  1.00  0.00     0.061 A 
HETATM   14  C9  UNL     1     -27.385  66.054  23.555  1.00  0.00     0.147 A 
HETATM   15  O6  UNL     1     -28.046  66.488  22.411  1.00  0.00    -0.189 OA
HETATM   16  C10 UNL     1     -28.080  65.350  24.541  1.00  0.00     0.180 A 
HETATM   17  O7  UNL     1     -29.435  65.083  24.375  1.00  0.00    -0.186 OA
HETATM   18  C11 UNL     1     -27.420  64.910  25.695  1.00  0.00     0.160 A 
HETATM   19  O8  UNL     1     -28.147  64.211  26.655  1.00  0.00    -0.188 OA
HETATM   20  C12 UNL     1     -26.040  65.178  25.870  1.00  0.00     0.057 A 
ENDROOT
TORSDOF 0
ENDMDL
MODEL 9
REMARK VINA RESULT:      -8.2      1.825      2.405
REMARK  0 active torsions:
REMARK  status: ('A' for Active; 'I' for Inactive)
ROOT
HETATM    1  O1  UNL     1     -28.891  65.137  24.201  1.00  0.00    -0.256 OA
HETATM    2  C1  UNL     1     -27.677  65.460  24.293  1.00  0.00     0.325 A 
HETATM    3  O2  UNL     1     -26.978  65.088  25.362  1.00  0.00    -0.269 OA
HETATM    4  C2  UNL     1     -25.690  65.392  25.527  1.00  0.00     0.127 A 
HETATM    5  C3  UNL     1     -25.018  66.139  24.538  1.00  0.00     0.117 A 
HETATM    6  C4  UNL     1     -25.722  66.545  23.403  1.00  0.00     0.086 A 
HETATM    7  C5  UNL     1     -27.067  66.203  23.275  1.00  0.00     0.185 A 
HETATM    8  O3  UNL     1     -27.786  66.598  22.152  1.00  0.00    -0.185 OA
HETATM    9  O4  UNL     1     -23.738  66.456  24.677  1.00  0.00    -0.272 OA
HETATM   10  C6  UNL     1     -23.020  66.096  25.736  1.00  0.00     0.299 A 
HETATM   11  O5  UNL     1     -21.807  66.437  25.792  1.00  0.00    -0.259 OA
HETATM   12  C7  UNL     1     -23.608  65.347  26.775  1.00  0.00     0.058 A 
HETATM   13  C8  UNL     1     -22.866  64.956  27.905  1.00  0.00     0.061 A 
HETATM   14  C9  UNL     1     -23.468  64.215  28.922  1.00  0.00     0.147 A 
HETATM   15  O6  UNL     1     -22.721  63.835  30.032  1.00  0.00    -0.189 OA
HETATM   16  C10 UNL     1     -24.813  63.854  28.827  1.00  0.00     0.180 A 
HETATM   17  O7  UNL     1     -25.405  63.115  29.846  1.00  0.00    -0.186 OA
HETATM   18  C11 UNL     1     -25.570  64.233  27.711  1.00  0.00     0.160 A 
HETATM   19  O8  UNL     1     -26.909  63.854  27.653  1.00  0.00    -0.188 OA
HETATM   20  C12 UNL     1     -24.974  64.985  26.670  1.00  0.00     0.057 A 
ENDROOT
TORSDOF 0
ENDMDL
