MODEL 1
REMARK VINA RESULT:      -9.3      0.000      0.000
REMARK  2 active torsions:
REMARK  status: ('A' for Active; 'I' for Inactive)
REMARK    1  A    between atoms: C1_2  and  C2_4 
REMARK    2  A    between atoms: C7_9  and  N1_10 
ROOT
HETATM    1  N1  UNL     1     -24.000  63.845  26.417  1.00  0.00    -0.309 N 
HETATM    2  C8  UNL     1     -24.927  63.219  27.183  1.00  0.00     0.051 A 
HETATM    3  C9  UNL     1     -24.725  62.179  28.095  1.00  0.00     0.031 A 
HETATM    4  C10 UNL     1     -25.846  61.676  28.781  1.00  0.00     0.002 A 
HETATM    5  C11 UNL     1     -27.133  62.207  28.541  1.00  0.00     0.001 A 
HETATM    6  C12 UNL     1     -27.316  63.247  27.613  1.00  0.00     0.014 A 
HETATM    7  C13 UNL     1     -26.189  63.729  26.950  1.00  0.00     0.004 A 
HETATM    8  C14 UNL     1     -26.040  64.706  25.990  1.00  0.00     0.004 A 
HETATM    9  C15 UNL     1     -26.966  65.542  25.369  1.00  0.00     0.014 A 
HETATM   10  C16 UNL     1     -26.487  66.447  24.406  1.00  0.00     0.001 A 
HETATM   11  C17 UNL     1     -25.111  66.496  24.088  1.00  0.00     0.002 A 
HETATM   12  C18 UNL     1     -24.197  65.640  24.729  1.00  0.00     0.031 A 
HETATM   13  C19 UNL     1     -24.694  64.747  25.682  1.00  0.00     0.051 A 
ENDROOT
BRANCH   1  14
HETATM   14  C7  UNL     1     -22.596  63.552  26.336  1.00  0.00     0.057 A 
HETATM   15  C2  UNL     1     -21.651  64.197  27.176  1.00  0.00     0.068 A 
HETATM   16  C3  UNL     1     -20.301  63.808  27.100  1.00  0.00     0.021 A 
HETATM   17  C4  UNL     1     -19.891  62.823  26.198  1.00  0.00     0.001 A 
HETATM   18  C5  UNL     1     -20.821  62.211  25.359  1.00  0.00     0.002 A 
HETATM   19  C6  UNL     1     -22.166  62.572  25.429  1.00  0.00     0.031 A 
BRANCH  15  20
HETATM   20  C1  UNL     1     -22.028  65.287  28.110  1.00  0.00     0.211 C 
HETATM   21  O1  UNL     1     -21.782  66.491  27.836  1.00  0.00    -0.644 OA
HETATM   22  O2  UNL     1     -22.632  64.988  29.325  1.00  0.00    -0.644 OA
ENDBRANCH  15  20
ENDBRANCH   1  14
TORSDOF 2
ENDMDL
MODEL 2
REMARK VINA RESULT:      -9.3      2.259      4.273
REMARK  2 active torsions:
REMARK  status: ('A' for Active; 'I' for Inactive)
REMARK    1  A    between atoms: C1_2  and  C2_4 
REMARK    2  A    between atoms: C7_9  and  N1_10 
ROOT
HETATM    1  N1  UNL     1     -23.957  65.163  25.621  1.00  0.00    -0.309 N 
HETATM    2  C8  UNL     1     -24.947  65.798  24.947  1.00  0.00     0.051 A 
HETATM    3  C9  UNL     1     -24.820  66.788  23.969  1.00  0.00     0.031 A 
HETATM    4  C10 UNL     1     -25.998  67.313  23.405  1.00  0.00     0.002 A 
HETATM    5  C11 UNL     1     -27.265  66.850  23.826  1.00  0.00     0.001 A 
HETATM    6  C12 UNL     1     -27.370  65.859  24.817  1.00  0.00     0.014 A 
HETATM    7  C13 UNL     1     -26.189  65.355  25.358  1.00  0.00     0.004 A 
HETATM    8  C14 UNL     1     -25.959  64.413  26.337  1.00  0.00     0.004 A 
HETATM    9  C15 UNL     1     -26.833  63.646  27.106  1.00  0.00     0.014 A 
HETATM   10  C16 UNL     1     -26.272  62.761  28.044  1.00  0.00     0.001 A 
HETATM   11  C17 UNL     1     -24.870  62.664  28.192  1.00  0.00     0.002 A 
HETATM   12  C18 UNL     1     -24.011  63.451  27.403  1.00  0.00     0.031 A 
HETATM   13  C19 UNL     1     -24.588  64.325  26.478  1.00  0.00     0.051 A 
ENDROOT
BRANCH   1  14
HETATM   14  C7  UNL     1     -22.543  65.396  25.514  1.00  0.00     0.057 A 
HETATM   15  C2  UNL     1     -21.689  64.491  24.832  1.00  0.00     0.068 A 
HETATM   16  C3  UNL     1     -20.326  64.817  24.697  1.00  0.00     0.021 A 
HETATM   17  C4  UNL     1     -19.816  65.996  25.243  1.00  0.00     0.001 A 
HETATM   18  C5  UNL     1     -20.657  66.869  25.932  1.00  0.00     0.002 A 
HETATM   19  C6  UNL     1     -22.013  66.572  26.066  1.00  0.00     0.031 A 
BRANCH  15  20
HETATM   20  C1  UNL     1     -22.171  63.199  24.283  1.00  0.00     0.211 C 
HETATM   21  O1  UNL     1     -22.869  63.159  23.235  1.00  0.00    -0.644 OA
HETATM   22  O2  UNL     1     -21.885  62.009  24.941  1.00  0.00    -0.644 OA
ENDBRANCH  15  20
ENDBRANCH   1  14
TORSDOF 2
ENDMDL
MODEL 3
REMARK VINA RESULT:      -9.2      0.141      3.331
REMARK  2 active torsions:
REMARK  status: ('A' for Active; 'I' for Inactive)
REMARK    1  A    between atoms: C1_2  and  C2_4 
REMARK    2  A    between atoms: C7_9  and  N1_10 
ROOT
HETATM    1  N1  UNL     1     -23.884  63.743  26.360  1.00  0.00    -0.309 N 
HETATM    2  C8  UNL     1     -24.566  64.680  25.657  1.00  0.00     0.051 A 
HETATM    3  C9  UNL     1     -24.061  65.585  24.719  1.00  0.00     0.031 A 
HETATM    4  C10 UNL     1     -24.963  66.478  24.111  1.00  0.00     0.002 A 
HETATM    5  C11 UNL     1     -26.334  66.457  24.452  1.00  0.00     0.001 A 
HETATM    6  C12 UNL     1     -26.821  65.545  25.404  1.00  0.00     0.014 A 
HETATM    7  C13 UNL     1     -25.907  64.670  25.989  1.00  0.00     0.004 A 
HETATM    8  C14 UNL     1     -26.061  63.692  26.948  1.00  0.00     0.004 A 
HETATM    9  C15 UNL     1     -27.183  63.250  27.645  1.00  0.00     0.014 A 
HETATM   10  C16 UNL     1     -27.004  62.217  28.582  1.00  0.00     0.001 A 
HETATM   11  C17 UNL     1     -25.725  61.656  28.799  1.00  0.00     0.002 A 
HETATM   12  C18 UNL     1     -24.608  62.123  28.081  1.00  0.00     0.031 A 
HETATM   13  C19 UNL     1     -24.806  63.152  27.156  1.00  0.00     0.051 A 
ENDROOT
BRANCH   1  14
HETATM   14  C7  UNL     1     -22.469  63.494  26.334  1.00  0.00     0.057 A 
HETATM   15  C2  UNL     1     -21.578  64.168  27.208  1.00  0.00     0.068 A 
HETATM   16  C3  UNL     1     -20.214  63.821  27.184  1.00  0.00     0.021 A 
HETATM   17  C4  UNL     1     -19.740  62.849  26.301  1.00  0.00     0.001 A 
HETATM   18  C5  UNL     1     -20.618  62.208  25.429  1.00  0.00     0.002 A 
HETATM   19  C6  UNL     1     -21.975  62.526  25.446  1.00  0.00     0.031 A 
BRANCH  15  20
HETATM   20  C1  UNL     1     -22.023  65.247  28.125  1.00  0.00     0.211 C 
HETATM   21  O1  UNL     1     -21.841  66.459  27.838  1.00  0.00    -0.644 OA
HETATM   22  O2  UNL     1     -22.623  64.930  29.337  1.00  0.00    -0.644 OA
ENDBRANCH  15  20
ENDBRANCH   1  14
TORSDOF 2
ENDMDL
MODEL 4
REMARK VINA RESULT:      -9.1      2.197      2.678
REMARK  2 active torsions:
REMARK  status: ('A' for Active; 'I' for Inactive)
REMARK    1  A    between atoms: C1_2  and  C2_4 
REMARK    2  A    between atoms: C7_9  and  N1_10 
ROOT
HETATM    1  N1  UNL     1     -23.858  65.154  25.803  1.00  0.00    -0.309 N 
HETATM    2  C8  UNL     1     -24.509  64.281  26.610  1.00  0.00     0.051 A 
HETATM    3  C9  UNL     1     -23.955  63.388  27.532  1.00  0.00     0.031 A 
HETATM    4  C10 UNL     1     -24.832  62.565  28.263  1.00  0.00     0.002 A 
HETATM    5  C11 UNL     1     -26.228  62.643  28.059  1.00  0.00     0.001 A 
HETATM    6  C12 UNL     1     -26.765  63.542  27.121  1.00  0.00     0.014 A 
HETATM    7  C13 UNL     1     -25.875  64.346  26.412  1.00  0.00     0.004 A 
HETATM    8  C14 UNL     1     -26.078  65.293  25.432  1.00  0.00     0.004 A 
HETATM    9  C15 UNL     1     -27.243  65.766  24.830  1.00  0.00     0.014 A 
HETATM   10  C16 UNL     1     -27.111  66.752  23.836  1.00  0.00     0.001 A 
HETATM   11  C17 UNL     1     -25.835  67.238  23.471  1.00  0.00     0.002 A 
HETATM   12  C18 UNL     1     -24.675  66.742  24.094  1.00  0.00     0.031 A 
HETATM   13  C19 UNL     1     -24.827  65.761  25.077  1.00  0.00     0.051 A 
ENDROOT
BRANCH   1  14
HETATM   14  C7  UNL     1     -22.438  65.332  25.679  1.00  0.00     0.057 A 
HETATM   15  C2  UNL     1     -21.632  64.410  24.961  1.00  0.00     0.068 A 
HETATM   16  C3  UNL     1     -20.260  64.683  24.812  1.00  0.00     0.021 A 
HETATM   17  C4  UNL     1     -19.693  65.827  25.378  1.00  0.00     0.001 A 
HETATM   18  C5  UNL     1     -20.487  66.716  26.102  1.00  0.00     0.002 A 
HETATM   19  C6  UNL     1     -21.852  66.471  26.250  1.00  0.00     0.031 A 
BRANCH  15  20
HETATM   20  C1  UNL     1     -22.175  63.153  24.388  1.00  0.00     0.211 C 
HETATM   21  O1  UNL     1     -22.865  63.165  23.335  1.00  0.00    -0.644 OA
HETATM   22  O2  UNL     1     -21.955  61.941  25.030  1.00  0.00    -0.644 OA
ENDBRANCH  15  20
ENDBRANCH   1  14
TORSDOF 2
ENDMDL
MODEL 5
REMARK VINA RESULT:      -8.0      2.445      5.907
REMARK  2 active torsions:
REMARK  status: ('A' for Active; 'I' for Inactive)
REMARK    1  A    between atoms: C1_2  and  C2_4 
REMARK    2  A    between atoms: C7_9  and  N1_10 
ROOT
HETATM    1  N1  UNL     1     -22.566  65.212  24.900  1.00  0.00    -0.309 N 
HETATM    2  C8  UNL     1     -21.680  66.191  25.206  1.00  0.00     0.051 A 
HETATM    3  C9  UNL     1     -21.932  67.406  25.850  1.00  0.00     0.031 A 
HETATM    4  C10 UNL     1     -20.849  68.280  26.058  1.00  0.00     0.002 A 
HETATM    5  C11 UNL     1     -19.551  67.934  25.619  1.00  0.00     0.001 A 
HETATM    6  C12 UNL     1     -19.321  66.710  24.966  1.00  0.00     0.014 A 
HETATM    7  C13 UNL     1     -20.410  65.863  24.774  1.00  0.00     0.004 A 
HETATM    8  C14 UNL     1     -20.515  64.631  24.165  1.00  0.00     0.004 A 
HETATM    9  C15 UNL     1     -19.565  63.822  23.545  1.00  0.00     0.014 A 
HETATM   10  C16 UNL     1     -20.001  62.599  23.005  1.00  0.00     0.001 A 
HETATM   11  C17 UNL     1     -21.359  62.218  23.094  1.00  0.00     0.002 A 
HETATM   12  C18 UNL     1     -22.298  63.055  23.724  1.00  0.00     0.031 A 
HETATM   13  C19 UNL     1     -21.845  64.266  24.253  1.00  0.00     0.051 A 
ENDROOT
BRANCH   1  14
HETATM   14  C7  UNL     1     -23.984  65.218  25.132  1.00  0.00     0.057 A 
HETATM   15  C2  UNL     1     -24.551  64.634  26.295  1.00  0.00     0.068 A 
HETATM   16  C3  UNL     1     -25.939  64.742  26.499  1.00  0.00     0.021 A 
HETATM   17  C4  UNL     1     -26.750  65.390  25.565  1.00  0.00     0.001 A 
HETATM   18  C5  UNL     1     -26.189  65.941  24.414  1.00  0.00     0.002 A 
HETATM   19  C6  UNL     1     -24.814  65.857  24.198  1.00  0.00     0.031 A 
BRANCH  15  20
HETATM   20  C1  UNL     1     -23.740  63.887  27.288  1.00  0.00     0.211 C 
HETATM   21  O1  UNL     1     -23.145  64.486  28.223  1.00  0.00    -0.644 OA
HETATM   22  O2  UNL     1     -23.598  62.509  27.181  1.00  0.00    -0.644 OA
ENDBRANCH  15  20
ENDBRANCH   1  14
TORSDOF 2
ENDMDL
MODEL 6
REMARK VINA RESULT:      -7.9      2.437      5.586
REMARK  2 active torsions:
REMARK  status: ('A' for Active; 'I' for Inactive)
REMARK    1  A    between atoms: C1_2  and  C2_4 
REMARK    2  A    between atoms: C7_9  and  N1_10 
ROOT
HETATM    1  N1  UNL     1     -22.555  65.233  24.825  1.00  0.00    -0.309 N 
HETATM    2  C8  UNL     1     -21.823  64.266  24.220  1.00  0.00     0.051 A 
HETATM    3  C9  UNL     1     -22.269  63.043  23.711  1.00  0.00     0.031 A 
HETATM    4  C10 UNL     1     -21.320  62.185  23.125  1.00  0.00     0.002 A 
HETATM    5  C11 UNL     1     -19.958  62.556  23.064  1.00  0.00     0.001 A 
HETATM    6  C12 UNL     1     -19.528  63.787  23.589  1.00  0.00     0.014 A 
HETATM    7  C13 UNL     1     -20.488  64.618  24.162  1.00  0.00     0.004 A 
HETATM    8  C14 UNL     1     -20.387  65.852  24.768  1.00  0.00     0.004 A 
HETATM    9  C15 UNL     1     -19.292  66.680  25.001  1.00  0.00     0.014 A 
HETATM   10  C16 UNL     1     -19.524  67.899  25.663  1.00  0.00     0.001 A 
HETATM   11  C17 UNL     1     -20.828  68.258  26.071  1.00  0.00     0.002 A 
HETATM   12  C18 UNL     1     -21.917  67.401  25.824  1.00  0.00     0.031 A 
HETATM   13  C19 UNL     1     -21.665  66.194  25.167  1.00  0.00     0.051 A 
ENDROOT
BRANCH   1  14
HETATM   14  C7  UNL     1     -23.960  65.202  25.123  1.00  0.00     0.057 A 
HETATM   15  C2  UNL     1     -24.461  64.568  26.289  1.00  0.00     0.068 A 
HETATM   16  C3  UNL     1     -25.840  64.642  26.561  1.00  0.00     0.021 A 
HETATM   17  C4  UNL     1     -26.706  65.305  25.688  1.00  0.00     0.001 A 
HETATM   18  C5  UNL     1     -26.210  65.905  24.532  1.00  0.00     0.002 A 
HETATM   19  C6  UNL     1     -24.844  65.856  24.251  1.00  0.00     0.031 A 
BRANCH  15  20
HETATM   20  C1  UNL     1     -23.591  63.805  27.217  1.00  0.00     0.211 C 
HETATM   21  O1  UNL     1     -23.534  62.548  27.168  1.00  0.00    -0.644 OA
HETATM   22  O2  UNL     1     -22.847  64.470  28.184  1.00  0.00    -0.644 OA
ENDBRANCH  15  20
ENDBRANCH   1  14
TORSDOF 2
ENDMDL
MODEL 7
REMARK VINA RESULT:      -7.6      2.881      4.766
REMARK  2 active torsions:
REMARK  status: ('A' for Active; 'I' for Inactive)
REMARK    1  A    between atoms: C1_2  and  C2_4 
REMARK    2  A    between atoms: C7_9  and  N1_10 
ROOT
HETATM    1  N1  UNL     1     -21.943  64.554  25.815  1.00  0.00    -0.309 N 
HETATM    2  C8  UNL     1     -23.266  64.820  25.692  1.00  0.00     0.051 A 
HETATM    3  C9  UNL     1     -23.924  65.416  24.612  1.00  0.00     0.031 A 
HETATM    4  C10 UNL     1     -25.316  65.600  24.708  1.00  0.00     0.002 A 
HETATM    5  C11 UNL     1     -26.017  65.197  25.867  1.00  0.00     0.001 A 
HETATM    6  C12 UNL     1     -25.335  64.607  26.945  1.00  0.00     0.014 A 
HETATM    7  C13 UNL     1     -23.957  64.434  26.824  1.00  0.00     0.004 A 
HETATM    8  C14 UNL     1     -23.020  63.917  27.692  1.00  0.00     0.004 A 
HETATM    9  C15 UNL     1     -23.140  63.387  28.975  1.00  0.00     0.014 A 
HETATM   10  C16 UNL     1     -21.968  62.940  29.609  1.00  0.00     0.001 A 
HETATM   11  C17 UNL     1     -20.718  63.030  28.956  1.00  0.00     0.002 A 
HETATM   12  C18 UNL     1     -20.624  63.570  27.660  1.00  0.00     0.031 A 
HETATM   13  C19 UNL     1     -21.801  64.011  27.048  1.00  0.00     0.051 A 
ENDROOT
BRANCH   1  14
HETATM   14  C7  UNL     1     -20.901  64.864  24.876  1.00  0.00     0.057 A 
HETATM   15  C2  UNL     1     -20.515  63.950  23.862  1.00  0.00     0.068 A 
HETATM   16  C3  UNL     1     -19.542  64.347  22.926  1.00  0.00     0.021 A 
HETATM   17  C4  UNL     1     -18.947  65.608  23.006  1.00  0.00     0.001 A 
HETATM   18  C5  UNL     1     -19.314  66.492  24.019  1.00  0.00     0.002 A 
HETATM   19  C6  UNL     1     -20.287  66.124  24.948  1.00  0.00     0.031 A 
BRANCH  15  20
HETATM   20  C1  UNL     1     -21.076  62.579  23.769  1.00  0.00     0.211 C 
HETATM   21  O1  UNL     1     -20.464  61.592  24.255  1.00  0.00    -0.644 OA
HETATM   22  O2  UNL     1     -22.280  62.361  23.110  1.00  0.00    -0.644 OA
ENDBRANCH  15  20
ENDBRANCH   1  14
TORSDOF 2
ENDMDL
MODEL 8
REMARK VINA RESULT:      -7.6      1.765      2.219
REMARK  2 active torsions:
REMARK  status: ('A' for Active; 'I' for Inactive)
REMARK    1  A    between atoms: C1_2  and  C2_4 
REMARK    2  A    between atoms: C7_9  and  N1_10 
ROOT
HETATM    1  N1  UNL     1     -22.899  65.159  25.753  1.00  0.00    -0.309 N 
HETATM    2  C8  UNL     1     -23.416  64.291  26.657  1.00  0.00     0.051 A 
HETATM    3  C9  UNL     1     -22.724  63.425  27.508  1.00  0.00     0.031 A 
HETATM    4  C10 UNL     1     -23.475  62.603  28.368  1.00  0.00     0.002 A 
HETATM    5  C11 UNL     1     -24.887  62.653  28.357  1.00  0.00     0.001 A 
HETATM    6  C12 UNL     1     -25.565  63.524  27.487  1.00  0.00     0.014 A 
HETATM    7  C13 UNL     1     -24.797  64.329  26.648  1.00  0.00     0.004 A 
HETATM    8  C14 UNL     1     -25.152  65.253  25.689  1.00  0.00     0.004 A 
HETATM    9  C15 UNL     1     -26.397  65.694  25.245  1.00  0.00     0.014 A 
HETATM   10  C16 UNL     1     -26.422  66.662  24.226  1.00  0.00     0.001 A 
HETATM   11  C17 UNL     1     -25.219  67.162  23.680  1.00  0.00     0.002 A 
HETATM   12  C18 UNL     1     -23.974  66.699  24.146  1.00  0.00     0.031 A 
HETATM   13  C19 UNL     1     -23.971  65.735  25.158  1.00  0.00     0.051 A 
ENDROOT
BRANCH   1  14
HETATM   14  C7  UNL     1     -21.514  65.358  25.431  1.00  0.00     0.057 A 
HETATM   15  C2  UNL     1     -20.709  66.283  26.146  1.00  0.00     0.068 A 
HETATM   16  C3  UNL     1     -19.340  66.373  25.832  1.00  0.00     0.021 A 
HETATM   17  C4  UNL     1     -18.786  65.587  24.820  1.00  0.00     0.001 A 
HETATM   18  C5  UNL     1     -19.588  64.698  24.106  1.00  0.00     0.002 A 
HETATM   19  C6  UNL     1     -20.944  64.582  24.411  1.00  0.00     0.031 A 
BRANCH  15  20
HETATM   20  C1  UNL     1     -21.261  67.179  27.191  1.00  0.00     0.211 C 
HETATM   21  O1  UNL     1     -21.610  66.730  28.314  1.00  0.00    -0.644 OA
HETATM   22  O2  UNL     1     -21.434  68.533  26.931  1.00  0.00    -0.644 OA
ENDBRANCH  15  20
ENDBRANCH   1  14
TORSDOF 2
ENDMDL
MODEL 9
REMARK VINA RESULT:      -7.6      2.367      5.771
REMARK  2 active torsions:
REMARK  status: ('A' for Active; 'I' for Inactive)
REMARK    1  A    between atoms: C1_2  and  C2_4 
REMARK    2  A    between atoms: C7_9  and  N1_10 
ROOT
HETATM    1  N1  UNL     1     -22.327  64.535  25.565  1.00  0.00    -0.309 N 
HETATM    2  C8  UNL     1     -21.730  63.896  24.529  1.00  0.00     0.051 A 
HETATM    3  C9  UNL     1     -22.293  62.954  23.663  1.00  0.00     0.031 A 
HETATM    4  C10 UNL     1     -21.475  62.414  22.654  1.00  0.00     0.002 A 
HETATM    5  C11 UNL     1     -20.124  62.812  22.533  1.00  0.00     0.001 A 
HETATM    6  C12 UNL     1     -19.575  63.755  23.419  1.00  0.00     0.014 A 
HETATM    7  C13 UNL     1     -20.407  64.276  24.408  1.00  0.00     0.004 A 
HETATM    8  C14 UNL     1     -20.171  65.182  25.420  1.00  0.00     0.004 A 
HETATM    9  C15 UNL     1     -19.023  65.883  25.784  1.00  0.00     0.014 A 
HETATM   10  C16 UNL     1     -19.108  66.745  26.892  1.00  0.00     0.001 A 
HETATM   11  C17 UNL     1     -20.322  66.886  27.601  1.00  0.00     0.002 A 
HETATM   12  C18 UNL     1     -21.466  66.165  27.212  1.00  0.00     0.031 A 
HETATM   13  C19 UNL     1     -21.360  65.312  26.110  1.00  0.00     0.051 A 
ENDROOT
BRANCH   1  14
HETATM   14  C7  UNL     1     -23.671  64.358  26.038  1.00  0.00     0.057 A 
HETATM   15  C2  UNL     1     -24.758  65.081  25.482  1.00  0.00     0.068 A 
HETATM   16  C3  UNL     1     -26.061  64.804  25.938  1.00  0.00     0.021 A 
HETATM   17  C4  UNL     1     -26.280  63.852  26.937  1.00  0.00     0.001 A 
HETATM   18  C5  UNL     1     -25.205  63.163  27.495  1.00  0.00     0.002 A 
HETATM   19  C6  UNL     1     -23.908  63.413  27.048  1.00  0.00     0.031 A 
BRANCH  15  20
HETATM   20  C1  UNL     1     -24.571  66.140  24.460  1.00  0.00     0.211 C 
HETATM   21  O1  UNL     1     -23.751  67.079  24.639  1.00  0.00    -0.644 OA
HETATM   22  O2  UNL     1     -25.329  66.128  23.295  1.00  0.00    -0.644 OA
ENDBRANCH  15  20
ENDBRANCH   1  14
TORSDOF 2
ENDMDL
