MODEL 1
REMARK VINA RESULT:      -6.9      0.000      0.000
REMARK  6 active torsions:
REMARK  status: ('A' for Active; 'I' for Inactive)
REMARK    1  A    between atoms: O1_2  and  C1_3 
REMARK    2  A    between atoms: C1_3  and  N2_12 
REMARK    3  A    between atoms: N1_4  and  C2_5 
REMARK    4  A    between atoms: N2_12  and  C9_14 
REMARK    5  A    between atoms: C9_14  and  C10_15 
REMARK    6  A    between atoms: C10_15  and  N3_16 
ROOT
HETATM    1  C1  UNL     1     -24.585  65.777  24.618  1.00  0.00     0.239 C 
HETATM    2  N1  UNL     1     -25.096  65.586  25.799  1.00  0.00    -0.209 NA
ENDROOT
BRANCH   1   3
HETATM    3  O1  UNL     1     -23.983  64.729  23.923  1.00  0.00    -0.331 OA
HETATM    4  H1  UNL     1     -23.618  63.919  24.409  1.00  0.00     0.221 HD
ENDBRANCH   1   3
BRANCH   1   5
HETATM    5  N2  UNL     1     -24.670  67.071  24.000  1.00  0.00    -0.353 N 
HETATM    6  H9  UNL     1     -23.815  67.670  23.975  1.00  0.00     0.163 HD
BRANCH   5   7
HETATM    7  C9  UNL     1     -25.885  67.571  23.356  1.00  0.00     0.151 C 
BRANCH   7   8
HETATM    8  C10 UNL     1     -26.722  66.422  22.785  1.00  0.00     0.254 C 
BRANCH   8   9
HETATM    9  N3  UNL     1     -28.159  66.698  22.957  1.00  0.00    -0.066 N 
HETATM   10  H14 UNL     1     -28.739  67.095  22.181  1.00  0.00     0.280 HD
HETATM   11  C11 UNL     1     -28.865  65.678  23.761  1.00  0.00     0.262 A 
HETATM   12  C12 UNL     1     -28.601  67.003  24.335  1.00  0.00     0.262 A 
ENDBRANCH   8   9
ENDBRANCH   7   8
ENDBRANCH   5   7
ENDBRANCH   1   5
BRANCH   2  13
HETATM   13  C2  UNL     1     -25.043  64.373  26.569  1.00  0.00     0.067 A 
HETATM   14  C3  UNL     1     -23.815  63.752  26.872  1.00  0.00     0.032 A 
HETATM   15  C4  UNL     1     -23.783  62.593  27.651  1.00  0.00     0.002 A 
HETATM   16  C5  UNL     1     -24.966  62.051  28.149  1.00  0.00     0.001 A 
HETATM   17  C6  UNL     1     -26.188  62.674  27.884  1.00  0.00     0.009 A 
HETATM   18  C7  UNL     1     -26.236  63.843  27.106  1.00  0.00    -0.033 A 
HETATM   19  C8  UNL     1     -27.556  64.508  26.830  1.00  0.00     0.050 C 
ENDBRANCH   2  13
TORSDOF 6
ENDMDL
MODEL 2
REMARK VINA RESULT:      -6.7      2.762      6.146
REMARK  6 active torsions:
REMARK  status: ('A' for Active; 'I' for Inactive)
REMARK    1  A    between atoms: O1_2  and  C1_3 
REMARK    2  A    between atoms: C1_3  and  N2_12 
REMARK    3  A    between atoms: N1_4  and  C2_5 
REMARK    4  A    between atoms: N2_12  and  C9_14 
REMARK    5  A    between atoms: C9_14  and  C10_15 
REMARK    6  A    between atoms: C10_15  and  N3_16 
ROOT
HETATM    1  C1  UNL     1     -28.451  64.222  27.440  1.00  0.00     0.239 C 
HETATM    2  N1  UNL     1     -27.753  63.986  26.368  1.00  0.00    -0.209 NA
ENDROOT
BRANCH   1   3
HETATM    3  O1  UNL     1     -29.112  65.438  27.608  1.00  0.00    -0.331 OA
HETATM    4  H1  UNL     1     -29.832  65.551  28.310  1.00  0.00     0.221 HD
ENDBRANCH   1   3
BRANCH   1   5
HETATM    5  N2  UNL     1     -28.576  63.210  28.451  1.00  0.00    -0.353 N 
HETATM    6  H9  UNL     1     -29.460  62.656  28.496  1.00  0.00     0.163 HD
BRANCH   5   7
HETATM    7  C9  UNL     1     -27.503  62.881  29.390  1.00  0.00     0.151 C 
BRANCH   7   8
HETATM    8  C10 UNL     1     -26.655  61.714  28.875  1.00  0.00     0.254 C 
BRANCH   8   9
HETATM    9  N3  UNL     1     -25.255  61.865  29.309  1.00  0.00    -0.066 N 
HETATM   10  H14 UNL     1     -24.832  61.235  30.030  1.00  0.00     0.280 HD
HETATM   11  C11 UNL     1     -24.329  62.211  28.209  1.00  0.00     0.262 A 
HETATM   12  C12 UNL     1     -24.687  63.226  29.206  1.00  0.00     0.262 A 
ENDBRANCH   8   9
ENDBRANCH   7   8
ENDBRANCH   5   7
ENDBRANCH   1   5
BRANCH   2  13
HETATM   13  C2  UNL     1     -27.488  64.911  25.298  1.00  0.00     0.067 A 
HETATM   14  C3  UNL     1     -28.492  65.273  24.378  1.00  0.00     0.032 A 
HETATM   15  C4  UNL     1     -28.223  66.198  23.367  1.00  0.00     0.002 A 
HETATM   16  C5  UNL     1     -26.962  66.784  23.271  1.00  0.00     0.001 A 
HETATM   17  C6  UNL     1     -25.966  66.458  24.196  1.00  0.00     0.009 A 
HETATM   18  C7  UNL     1     -26.224  65.533  25.220  1.00  0.00    -0.033 A 
HETATM   19  C8  UNL     1     -25.146  65.193  26.213  1.00  0.00     0.050 C 
ENDBRANCH   2  13
TORSDOF 6
ENDMDL
MODEL 3
REMARK VINA RESULT:      -6.5      1.983      4.747
REMARK  6 active torsions:
REMARK  status: ('A' for Active; 'I' for Inactive)
REMARK    1  A    between atoms: O1_2  and  C1_3 
REMARK    2  A    between atoms: C1_3  and  N2_12 
REMARK    3  A    between atoms: N1_4  and  C2_5 
REMARK    4  A    between atoms: N2_12  and  C9_14 
REMARK    5  A    between atoms: C9_14  and  C10_15 
REMARK    6  A    between atoms: C10_15  and  N3_16 
ROOT
HETATM    1  C1  UNL     1     -24.507  66.848  24.051  1.00  0.00     0.239 C 
HETATM    2  N1  UNL     1     -25.203  66.195  24.935  1.00  0.00    -0.209 NA
ENDROOT
BRANCH   1   3
HETATM    3  O1  UNL     1     -25.107  67.338  22.892  1.00  0.00    -0.331 OA
HETATM    4  H1  UNL     1     -25.977  66.952  22.548  1.00  0.00     0.221 HD
ENDBRANCH   1   3
BRANCH   1   5
HETATM    5  N2  UNL     1     -23.113  67.103  24.282  1.00  0.00    -0.353 N 
HETATM    6  H9  UNL     1     -22.576  67.633  23.559  1.00  0.00     0.163 HD
BRANCH   5   7
HETATM    7  C9  UNL     1     -22.418  66.702  25.505  1.00  0.00     0.151 C 
BRANCH   7   8
HETATM    8  C10 UNL     1     -21.685  65.370  25.314  1.00  0.00     0.254 C 
BRANCH   8   9
HETATM    9  N3  UNL     1     -22.628  64.244  25.422  1.00  0.00    -0.066 N 
HETATM   10  H14 UNL     1     -23.589  64.368  25.819  1.00  0.00     0.280 HD
HETATM   11  C11 UNL     1     -22.579  63.320  24.270  1.00  0.00     0.262 A 
HETATM   12  C12 UNL     1     -22.024  62.902  25.562  1.00  0.00     0.262 A 
ENDBRANCH   8   9
ENDBRANCH   7   8
ENDBRANCH   5   7
ENDBRANCH   1   5
BRANCH   2  13
HETATM   13  C2  UNL     1     -26.586  65.814  24.826  1.00  0.00     0.067 A 
HETATM   14  C3  UNL     1     -27.404  66.318  23.796  1.00  0.00     0.032 A 
HETATM   15  C4  UNL     1     -28.735  65.909  23.687  1.00  0.00     0.002 A 
HETATM   16  C5  UNL     1     -29.259  64.983  24.588  1.00  0.00     0.001 A 
HETATM   17  C6  UNL     1     -28.450  64.451  25.595  1.00  0.00     0.009 A 
HETATM   18  C7  UNL     1     -27.108  64.850  25.714  1.00  0.00    -0.033 A 
HETATM   19  C8  UNL     1     -26.245  64.267  26.799  1.00  0.00     0.050 C 
ENDBRANCH   2  13
TORSDOF 6
ENDMDL
MODEL 4
REMARK VINA RESULT:      -6.5      1.689      2.229
REMARK  6 active torsions:
REMARK  status: ('A' for Active; 'I' for Inactive)
REMARK    1  A    between atoms: O1_2  and  C1_3 
REMARK    2  A    between atoms: C1_3  and  N2_12 
REMARK    3  A    between atoms: N1_4  and  C2_5 
REMARK    4  A    between atoms: N2_12  and  C9_14 
REMARK    5  A    between atoms: C9_14  and  C10_15 
REMARK    6  A    between atoms: C10_15  and  N3_16 
ROOT
HETATM    1  C1  UNL     1     -24.260  66.603  24.173  1.00  0.00     0.239 C 
HETATM    2  N1  UNL     1     -24.529  65.331  24.237  1.00  0.00    -0.209 NA
ENDROOT
BRANCH   1   3
HETATM    3  O1  UNL     1     -23.080  67.111  24.714  1.00  0.00    -0.331 OA
HETATM    4  H1  UNL     1     -22.576  67.862  24.260  1.00  0.00     0.221 HD
ENDBRANCH   1   3
BRANCH   1   5
HETATM    5  N2  UNL     1     -25.167  67.494  23.506  1.00  0.00    -0.353 N 
HETATM    6  H9  UNL     1     -24.939  68.513  23.482  1.00  0.00     0.163 HD
BRANCH   5   7
HETATM    7  C9  UNL     1     -26.372  67.038  22.812  1.00  0.00     0.151 C 
BRANCH   7   8
HETATM    8  C10 UNL     1     -27.559  66.931  23.775  1.00  0.00     0.254 C 
BRANCH   8   9
HETATM    9  N3  UNL     1     -27.680  65.557  24.291  1.00  0.00    -0.066 N 
HETATM   10  H14 UNL     1     -26.863  64.902  24.307  1.00  0.00     0.280 HD
HETATM   11  C11 UNL     1     -28.548  65.447  25.483  1.00  0.00     0.262 A 
HETATM   12  C12 UNL     1     -29.019  64.940  24.190  1.00  0.00     0.262 A 
ENDBRANCH   8   9
ENDBRANCH   7   8
ENDBRANCH   5   7
ENDBRANCH   1   5
BRANCH   2  13
HETATM   13  C2  UNL     1     -23.755  64.325  24.914  1.00  0.00     0.067 A 
HETATM   14  C3  UNL     1     -22.621  63.746  24.311  1.00  0.00     0.032 A 
HETATM   15  C4  UNL     1     -21.863  62.796  24.998  1.00  0.00     0.002 A 
HETATM   16  C5  UNL     1     -22.214  62.425  26.296  1.00  0.00     0.001 A 
HETATM   17  C6  UNL     1     -23.317  63.015  26.918  1.00  0.00     0.009 A 
HETATM   18  C7  UNL     1     -24.086  63.976  26.240  1.00  0.00    -0.033 A 
HETATM   19  C8  UNL     1     -25.269  64.607  26.921  1.00  0.00     0.050 C 
ENDBRANCH   2  13
TORSDOF 6
ENDMDL
MODEL 5
REMARK VINA RESULT:      -6.4      2.769      5.249
REMARK  6 active torsions:
REMARK  status: ('A' for Active; 'I' for Inactive)
REMARK    1  A    between atoms: O1_2  and  C1_3 
REMARK    2  A    between atoms: C1_3  and  N2_12 
REMARK    3  A    between atoms: N1_4  and  C2_5 
REMARK    4  A    between atoms: N2_12  and  C9_14 
REMARK    5  A    between atoms: C9_14  and  C10_15 
REMARK    6  A    between atoms: C10_15  and  N3_16 
ROOT
HETATM    1  C1  UNL     1     -24.450  66.832  24.004  1.00  0.00     0.239 C 
HETATM    2  N1  UNL     1     -25.129  66.165  24.891  1.00  0.00    -0.209 NA
ENDROOT
BRANCH   1   3
HETATM    3  O1  UNL     1     -25.077  67.362  22.877  1.00  0.00    -0.331 OA
HETATM    4  H1  UNL     1     -25.954  66.986  22.540  1.00  0.00     0.221 HD
ENDBRANCH   1   3
BRANCH   1   5
HETATM    5  N2  UNL     1     -23.046  67.061  24.199  1.00  0.00    -0.353 N 
HETATM    6  H9  UNL     1     -22.622  67.929  23.802  1.00  0.00     0.163 HD
BRANCH   5   7
HETATM    7  C9  UNL     1     -22.189  66.163  24.972  1.00  0.00     0.151 C 
BRANCH   7   8
HETATM    8  C10 UNL     1     -21.629  66.864  26.214  1.00  0.00     0.254 C 
BRANCH   8   9
HETATM    9  N3  UNL     1     -21.344  68.279  25.921  1.00  0.00    -0.066 N 
HETATM   10  H14 UNL     1     -21.994  68.862  25.345  1.00  0.00     0.280 HD
HETATM   11  C11 UNL     1     -20.746  69.009  27.059  1.00  0.00     0.262 A 
HETATM   12  C12 UNL     1     -19.916  68.662  25.900  1.00  0.00     0.262 A 
ENDBRANCH   8   9
ENDBRANCH   7   8
ENDBRANCH   5   7
ENDBRANCH   1   5
BRANCH   2  13
HETATM   13  C2  UNL     1     -26.519  65.805  24.813  1.00  0.00     0.067 A 
HETATM   14  C3  UNL     1     -27.332  66.252  23.753  1.00  0.00     0.032 A 
HETATM   15  C4  UNL     1     -28.672  65.865  23.677  1.00  0.00     0.002 A 
HETATM   16  C5  UNL     1     -29.211  65.016  24.644  1.00  0.00     0.001 A 
HETATM   17  C6  UNL     1     -28.408  64.539  25.683  1.00  0.00     0.009 A 
HETATM   18  C7  UNL     1     -27.058  64.918  25.769  1.00  0.00    -0.033 A 
HETATM   19  C8  UNL     1     -26.201  64.395  26.890  1.00  0.00     0.050 C 
ENDBRANCH   2  13
TORSDOF 6
ENDMDL
MODEL 6
REMARK VINA RESULT:      -6.3      3.402      5.605
REMARK  6 active torsions:
REMARK  status: ('A' for Active; 'I' for Inactive)
REMARK    1  A    between atoms: O1_2  and  C1_3 
REMARK    2  A    between atoms: C1_3  and  N2_12 
REMARK    3  A    between atoms: N1_4  and  C2_5 
REMARK    4  A    between atoms: N2_12  and  C9_14 
REMARK    5  A    between atoms: C9_14  and  C10_15 
REMARK    6  A    between atoms: C10_15  and  N3_16 
ROOT
HETATM    1  C1  UNL     1     -22.880  65.351  24.997  1.00  0.00     0.239 C 
HETATM    2  N1  UNL     1     -23.882  66.086  25.386  1.00  0.00    -0.209 NA
ENDROOT
BRANCH   1   3
HETATM    3  O1  UNL     1     -23.095  64.104  24.414  1.00  0.00    -0.331 OA
HETATM    4  H1  UNL     1     -22.322  63.535  24.093  1.00  0.00     0.221 HD
ENDBRANCH   1   3
BRANCH   1   5
HETATM    5  N2  UNL     1     -21.537  65.840  25.134  1.00  0.00    -0.353 N 
HETATM    6  H9  UNL     1     -20.860  65.286  25.704  1.00  0.00     0.163 HD
BRANCH   5   7
HETATM    7  C9  UNL     1     -21.056  67.052  24.471  1.00  0.00     0.151 C 
BRANCH   7   8
HETATM    8  C10 UNL     1     -20.979  68.227  25.452  1.00  0.00     0.254 C 
BRANCH   8   9
HETATM    9  N3  UNL     1     -19.611  68.773  25.494  1.00  0.00    -0.066 N 
HETATM   10  H14 UNL     1     -19.086  69.006  24.619  1.00  0.00     0.280 HD
HETATM   11  C11 UNL     1     -19.394  69.742  26.589  1.00  0.00     0.262 A 
HETATM   12  C12 UNL     1     -18.800  68.403  26.673  1.00  0.00     0.262 A 
ENDBRANCH   8   9
ENDBRANCH   7   8
ENDBRANCH   5   7
ENDBRANCH   1   5
BRANCH   2  13
HETATM   13  C2  UNL     1     -25.272  65.718  25.368  1.00  0.00     0.067 A 
HETATM   14  C3  UNL     1     -25.827  64.907  26.377  1.00  0.00     0.032 A 
HETATM   15  C4  UNL     1     -27.187  64.588  26.360  1.00  0.00     0.002 A 
HETATM   16  C5  UNL     1     -28.010  65.087  25.351  1.00  0.00     0.001 A 
HETATM   17  C6  UNL     1     -27.479  65.918  24.362  1.00  0.00     0.009 A 
HETATM   18  C7  UNL     1     -26.114  66.250  24.369  1.00  0.00    -0.033 A 
HETATM   19  C8  UNL     1     -25.555  67.150  23.301  1.00  0.00     0.050 C 
ENDBRANCH   2  13
TORSDOF 6
ENDMDL
MODEL 7
REMARK VINA RESULT:      -6.3      3.578      5.814
REMARK  6 active torsions:
REMARK  status: ('A' for Active; 'I' for Inactive)
REMARK    1  A    between atoms: O1_2  and  C1_3 
REMARK    2  A    between atoms: C1_3  and  N2_12 
REMARK    3  A    between atoms: N1_4  and  C2_5 
REMARK    4  A    between atoms: N2_12  and  C9_14 
REMARK    5  A    between atoms: C9_14  and  C10_15 
REMARK    6  A    between atoms: C10_15  and  N3_16 
ROOT
HETATM    1  C1  UNL     1     -22.946  65.496  24.795  1.00  0.00     0.239 C 
HETATM    2  N1  UNL     1     -23.967  66.215  25.161  1.00  0.00    -0.209 NA
ENDROOT
BRANCH   1   3
HETATM    3  O1  UNL     1     -23.117  64.181  24.365  1.00  0.00    -0.331 OA
HETATM    4  H1  UNL     1     -23.691  63.530  24.886  1.00  0.00     0.221 HD
ENDBRANCH   1   3
BRANCH   1   5
HETATM    5  N2  UNL     1     -21.630  66.069  24.796  1.00  0.00    -0.353 N 
HETATM    6  H9  UNL     1     -21.491  67.003  25.243  1.00  0.00     0.163 HD
BRANCH   5   7
HETATM    7  C9  UNL     1     -20.459  65.384  24.247  1.00  0.00     0.151 C 
BRANCH   7   8
HETATM    8  C10 UNL     1     -19.308  66.365  24.001  1.00  0.00     0.254 C 
BRANCH   8   9
HETATM    9  N3  UNL     1     -19.065  66.521  22.557  1.00  0.00    -0.066 N 
HETATM   10  H14 UNL     1     -19.602  67.212  21.981  1.00  0.00     0.280 HD
HETATM   11  C11 UNL     1     -17.638  66.423  22.183  1.00  0.00     0.262 A 
HETATM   12  C12 UNL     1     -18.556  65.327  21.851  1.00  0.00     0.262 A 
ENDBRANCH   8   9
ENDBRANCH   7   8
ENDBRANCH   5   7
ENDBRANCH   1   5
BRANCH   2  13
HETATM   13  C2  UNL     1     -25.332  65.772  25.268  1.00  0.00     0.067 A 
HETATM   14  C3  UNL     1     -25.746  64.923  26.313  1.00  0.00     0.032 A 
HETATM   15  C4  UNL     1     -27.082  64.532  26.418  1.00  0.00     0.002 A 
HETATM   16  C5  UNL     1     -28.022  64.995  25.498  1.00  0.00     0.001 A 
HETATM   17  C6  UNL     1     -27.632  65.863  24.476  1.00  0.00     0.009 A 
HETATM   18  C7  UNL     1     -26.291  66.268  24.360  1.00  0.00    -0.033 A 
HETATM   19  C8  UNL     1     -25.883  67.207  23.258  1.00  0.00     0.050 C 
ENDBRANCH   2  13
TORSDOF 6
ENDMDL
MODEL 8
REMARK VINA RESULT:      -6.1      3.201      5.523
REMARK  6 active torsions:
REMARK  status: ('A' for Active; 'I' for Inactive)
REMARK    1  A    between atoms: O1_2  and  C1_3 
REMARK    2  A    between atoms: C1_3  and  N2_12 
REMARK    3  A    between atoms: N1_4  and  C2_5 
REMARK    4  A    between atoms: N2_12  and  C9_14 
REMARK    5  A    between atoms: C9_14  and  C10_15 
REMARK    6  A    between atoms: C10_15  and  N3_16 
ROOT
HETATM    1  C1  UNL     1     -22.997  65.285  24.794  1.00  0.00     0.239 C 
HETATM    2  N1  UNL     1     -23.959  66.076  25.167  1.00  0.00    -0.209 NA
ENDROOT
BRANCH   1   3
HETATM    3  O1  UNL     1     -23.267  63.989  24.357  1.00  0.00    -0.331 OA
HETATM    4  H1  UNL     1     -22.578  63.455  23.844  1.00  0.00     0.221 HD
ENDBRANCH   1   3
BRANCH   1   5
HETATM    5  N2  UNL     1     -21.640  65.756  24.795  1.00  0.00    -0.353 N 
HETATM    6  H9  UNL     1     -21.460  66.760  24.572  1.00  0.00     0.163 HD
BRANCH   5   7
HETATM    7  C9  UNL     1     -20.500  64.910  25.145  1.00  0.00     0.151 C 
BRANCH   7   8
HETATM    8  C10 UNL     1     -19.964  64.166  23.917  1.00  0.00     0.254 C 
BRANCH   8   9
HETATM    9  N3  UNL     1     -20.544  62.815  23.841  1.00  0.00    -0.066 N 
HETATM   10  H14 UNL     1     -21.356  62.531  24.438  1.00  0.00     0.280 HD
HETATM   11  C11 UNL     1     -20.605  62.274  22.466  1.00  0.00     0.262 A 
HETATM   12  C12 UNL     1     -19.626  61.736  23.417  1.00  0.00     0.262 A 
ENDBRANCH   8   9
ENDBRANCH   7   8
ENDBRANCH   5   7
ENDBRANCH   1   5
BRANCH   2  13
HETATM   13  C2  UNL     1     -25.353  65.738  25.275  1.00  0.00     0.067 A 
HETATM   14  C3  UNL     1     -25.835  64.952  26.340  1.00  0.00     0.032 A 
HETATM   15  C4  UNL     1     -27.197  64.663  26.446  1.00  0.00     0.002 A 
HETATM   16  C5  UNL     1     -28.095  65.166  25.505  1.00  0.00     0.001 A 
HETATM   17  C6  UNL     1     -27.635  65.973  24.461  1.00  0.00     0.009 A 
HETATM   18  C7  UNL     1     -26.268  66.276  24.345  1.00  0.00    -0.033 A 
HETATM   19  C8  UNL     1     -25.785  67.150  23.220  1.00  0.00     0.050 C 
ENDBRANCH   2  13
TORSDOF 6
ENDMDL
MODEL 9
REMARK VINA RESULT:      -6.1      4.613      6.324
REMARK  6 active torsions:
REMARK  status: ('A' for Active; 'I' for Inactive)
REMARK    1  A    between atoms: O1_2  and  C1_3 
REMARK    2  A    between atoms: C1_3  and  N2_12 
REMARK    3  A    between atoms: N1_4  and  C2_5 
REMARK    4  A    between atoms: N2_12  and  C9_14 
REMARK    5  A    between atoms: C9_14  and  C10_15 
REMARK    6  A    between atoms: C10_15  and  N3_16 
ROOT
HETATM    1  C1  UNL     1     -21.938  63.792  24.234  1.00  0.00     0.239 C 
HETATM    2  N1  UNL     1     -22.432  64.420  25.262  1.00  0.00    -0.209 NA
ENDROOT
BRANCH   1   3
HETATM    3  O1  UNL     1     -22.732  62.937  23.472  1.00  0.00    -0.331 OA
HETATM    4  H1  UNL     1     -22.693  62.948  22.461  1.00  0.00     0.221 HD
ENDBRANCH   1   3
BRANCH   1   5
HETATM    5  N2  UNL     1     -20.570  64.006  23.854  1.00  0.00    -0.353 N 
HETATM    6  H9  UNL     1     -19.949  64.541  24.501  1.00  0.00     0.163 HD
BRANCH   5   7
HETATM    7  C9  UNL     1     -19.988  63.465  22.625  1.00  0.00     0.151 C 
BRANCH   7   8
HETATM    8  C10 UNL     1     -19.033  64.471  21.974  1.00  0.00     0.254 C 
BRANCH   8   9
HETATM    9  N3  UNL     1     -17.929  63.768  21.298  1.00  0.00    -0.066 N 
HETATM   10  H14 UNL     1     -18.031  62.783  20.959  1.00  0.00     0.280 HD
HETATM   11  C11 UNL     1     -17.152  64.631  20.383  1.00  0.00     0.262 A 
HETATM   12  C12 UNL     1     -16.564  64.206  21.658  1.00  0.00     0.262 A 
ENDBRANCH   8   9
ENDBRANCH   7   8
ENDBRANCH   5   7
ENDBRANCH   1   5
BRANCH   2  13
HETATM   13  C2  UNL     1     -23.757  64.271  25.800  1.00  0.00     0.067 A 
HETATM   14  C3  UNL     1     -24.059  63.258  26.731  1.00  0.00     0.032 A 
HETATM   15  C4  UNL     1     -25.344  63.152  27.268  1.00  0.00     0.002 A 
HETATM   16  C5  UNL     1     -26.335  64.061  26.899  1.00  0.00     0.001 A 
HETATM   17  C6  UNL     1     -26.041  65.090  26.001  1.00  0.00     0.009 A 
HETATM   18  C7  UNL     1     -24.751  65.211  25.456  1.00  0.00    -0.033 A 
HETATM   19  C8  UNL     1     -24.445  66.326  24.494  1.00  0.00     0.050 C 
ENDBRANCH   2  13
TORSDOF 6
ENDMDL
