MODEL 1
REMARK VINA RESULT:      -5.5      0.000      0.000
REMARK  6 active torsions:
REMARK  status: ('A' for Active; 'I' for Inactive)
REMARK    1  A    between atoms: O1_2  and  C1_3 
REMARK    2  A    between atoms: C1_3  and  C8_17 
REMARK    3  A    between atoms: N1_4  and  C2_5 
REMARK    4  A    between atoms: C4_7  and  O2_8 
REMARK    5  A    between atoms: C5_10  and  O3_11 
REMARK    6  A    between atoms: C7_14  and  O5_15 
ROOT
HETATM    1  C2  UNL     1     -17.073  64.398  21.179  1.00  0.00     0.168 C 
HETATM    2  C3  UNL     1     -18.133  65.512  21.144  1.00  0.00     0.069 C 
HETATM    3  C4  UNL     1     -18.113  66.347  22.431  1.00  0.00     0.175 C 
HETATM    4  C5  UNL     1     -18.126  65.428  23.671  1.00  0.00     0.290 C 
HETATM    5  O4  UNL     1     -17.071  64.475  23.615  1.00  0.00    -0.327 OA
HETATM    6  C7  UNL     1     -17.202  63.611  22.497  1.00  0.00     0.284 C 
ENDROOT
BRANCH   1   7
HETATM    7  N1  UNL     1     -15.723  64.956  21.067  1.00  0.00    -0.253 NA
HETATM    8  C1  UNL     1     -14.995  64.909  19.992  1.00  0.00     0.243 C 
BRANCH   8   9
HETATM    9  O1  UNL     1     -15.470  64.275  18.843  1.00  0.00    -0.342 OA
HETATM   10  H1  UNL     1     -15.118  63.368  18.560  1.00  0.00     0.219 HD
ENDBRANCH   8   9
BRANCH   8  11
HETATM   11  C8  UNL     1     -13.627  65.524  19.988  1.00  0.00     0.457 C 
HETATM   12  F1  UNL     1     -13.707  66.904  20.054  1.00  0.00    -0.163 F 
HETATM   13  F2  UNL     1     -12.967  65.167  18.828  1.00  0.00    -0.163 F 
HETATM   14  F3  UNL     1     -12.914  65.061  21.078  1.00  0.00    -0.163 F 
ENDBRANCH   8  11
ENDBRANCH   1   7
BRANCH   6  15
HETATM   15  O5  UNL     1     -16.192  62.640  22.570  1.00  0.00    -0.369 OA
HETATM   16  H12 UNL     1     -16.605  61.773  22.313  1.00  0.00     0.212 HD
ENDBRANCH   6  15
BRANCH   3  17
HETATM   17  O2  UNL     1     -16.967  67.160  22.444  1.00  0.00    -0.391 OA
HETATM   18  H6  UNL     1     -17.193  67.985  21.939  1.00  0.00     0.210 HD
ENDBRANCH   3  17
BRANCH   4  19
HETATM   19  O3  UNL     1     -19.394  64.800  23.790  1.00  0.00    -0.363 OA
HETATM   20  C6  UNL     1     -20.329  65.696  24.352  1.00  0.00     0.204 C 
ENDBRANCH   4  19
TORSDOF 6
ENDMDL
MODEL 2
REMARK VINA RESULT:      -5.4      3.702      5.529
REMARK  6 active torsions:
REMARK  status: ('A' for Active; 'I' for Inactive)
REMARK    1  A    between atoms: O1_2  and  C1_3 
REMARK    2  A    between atoms: C1_3  and  C8_17 
REMARK    3  A    between atoms: N1_4  and  C2_5 
REMARK    4  A    between atoms: C4_7  and  O2_8 
REMARK    5  A    between atoms: C5_10  and  O3_11 
REMARK    6  A    between atoms: C7_14  and  O5_15 
ROOT
HETATM    1  C2  UNL     1     -17.570  65.398  21.326  1.00  0.00     0.168 C 
HETATM    2  C3  UNL     1     -16.825  64.668  20.196  1.00  0.00     0.069 C 
HETATM    3  C4  UNL     1     -15.493  64.084  20.687  1.00  0.00     0.175 C 
HETATM    4  C5  UNL     1     -14.689  65.151  21.460  1.00  0.00     0.290 C 
HETATM    5  O4  UNL     1     -15.464  65.717  22.510  1.00  0.00    -0.327 OA
HETATM    6  C7  UNL     1     -16.611  66.388  22.013  1.00  0.00     0.284 C 
ENDROOT
BRANCH   1   7
HETATM    7  N1  UNL     1     -18.088  64.447  22.312  1.00  0.00    -0.253 NA
HETATM    8  C1  UNL     1     -19.179  63.757  22.166  1.00  0.00     0.243 C 
BRANCH   8   9
HETATM    9  O1  UNL     1     -19.964  63.909  21.022  1.00  0.00    -0.342 OA
HETATM   10  H1  UNL     1     -19.544  64.014  20.106  1.00  0.00     0.219 HD
ENDBRANCH   8   9
BRANCH   8  11
HETATM   11  C8  UNL     1     -19.610  62.801  23.238  1.00  0.00     0.457 C 
HETATM   12  F1  UNL     1     -18.524  62.116  23.754  1.00  0.00    -0.163 F 
HETATM   13  F2  UNL     1     -20.506  61.892  22.711  1.00  0.00    -0.163 F 
HETATM   14  F3  UNL     1     -20.224  63.505  24.258  1.00  0.00    -0.163 F 
ENDBRANCH   8  11
ENDBRANCH   1   7
BRANCH   6  15
HETATM   15  O5  UNL     1     -17.261  67.007  23.092  1.00  0.00    -0.369 OA
HETATM   16  H12 UNL     1     -17.298  66.341  23.829  1.00  0.00     0.212 HD
ENDBRANCH   6  15
BRANCH   3  17
HETATM   17  O2  UNL     1     -15.744  62.976  21.513  1.00  0.00    -0.391 OA
HETATM   18  H6  UNL     1     -16.565  63.183  22.033  1.00  0.00     0.210 HD
ENDBRANCH   3  17
BRANCH   4  19
HETATM   19  O3  UNL     1     -14.220  66.144  20.560  1.00  0.00    -0.363 OA
HETATM   20  C6  UNL     1     -13.219  65.607  19.723  1.00  0.00     0.204 C 
ENDBRANCH   4  19
TORSDOF 6
ENDMDL
MODEL 3
REMARK VINA RESULT:      -5.3      7.015      8.913
REMARK  6 active torsions:
REMARK  status: ('A' for Active; 'I' for Inactive)
REMARK    1  A    between atoms: O1_2  and  C1_3 
REMARK    2  A    between atoms: C1_3  and  C8_17 
REMARK    3  A    between atoms: N1_4  and  C2_5 
REMARK    4  A    between atoms: C4_7  and  O2_8 
REMARK    5  A    between atoms: C5_10  and  O3_11 
REMARK    6  A    between atoms: C7_14  and  O5_15 
ROOT
HETATM    1  C2  UNL     1     -22.966  65.933  25.898  1.00  0.00     0.168 C 
HETATM    2  C3  UNL     1     -21.807  66.920  26.122  1.00  0.00     0.069 C 
HETATM    3  C4  UNL     1     -20.796  66.870  24.969  1.00  0.00     0.175 C 
HETATM    4  C5  UNL     1     -20.401  65.410  24.660  1.00  0.00     0.290 C 
HETATM    5  O4  UNL     1     -21.552  64.608  24.420  1.00  0.00    -0.327 OA
HETATM    6  C7  UNL     1     -22.394  64.543  25.560  1.00  0.00     0.284 C 
ENDROOT
BRANCH   1   7
HETATM    7  N1  UNL     1     -23.837  66.386  24.811  1.00  0.00    -0.253 NA
HETATM    8  C1  UNL     1     -25.128  66.238  24.794  1.00  0.00     0.243 C 
BRANCH   8   9
HETATM    9  O1  UNL     1     -25.780  65.591  25.844  1.00  0.00    -0.342 OA
HETATM   10  H1  UNL     1     -25.519  64.654  26.126  1.00  0.00     0.219 HD
ENDBRANCH   8   9
BRANCH   8  11
HETATM   11  C8  UNL     1     -25.923  66.751  23.631  1.00  0.00     0.457 C 
HETATM   12  F1  UNL     1     -26.722  67.815  24.010  1.00  0.00    -0.163 F 
HETATM   13  F2  UNL     1     -26.727  65.739  23.142  1.00  0.00    -0.163 F 
HETATM   14  F3  UNL     1     -25.060  67.167  22.634  1.00  0.00    -0.163 F 
ENDBRANCH   8  11
ENDBRANCH   1   7
BRANCH   6  15
HETATM   15  O5  UNL     1     -23.443  63.653  25.283  1.00  0.00    -0.369 OA
HETATM   16  H12 UNL     1     -24.089  63.723  26.035  1.00  0.00     0.212 HD
ENDBRANCH   6  15
BRANCH   3  17
HETATM   17  O2  UNL     1     -21.356  67.471  23.829  1.00  0.00    -0.391 OA
HETATM   18  H6  UNL     1     -21.488  68.432  24.045  1.00  0.00     0.210 HD
ENDBRANCH   3  17
BRANCH   4  19
HETATM   19  O3  UNL     1     -19.611  64.892  25.720  1.00  0.00    -0.363 OA
HETATM   20  C6  UNL     1     -18.351  65.526  25.740  1.00  0.00     0.204 C 
ENDBRANCH   4  19
TORSDOF 6
ENDMDL
MODEL 4
REMARK VINA RESULT:      -5.3      5.547      6.840
REMARK  6 active torsions:
REMARK  status: ('A' for Active; 'I' for Inactive)
REMARK    1  A    between atoms: O1_2  and  C1_3 
REMARK    2  A    between atoms: C1_3  and  C8_17 
REMARK    3  A    between atoms: N1_4  and  C2_5 
REMARK    4  A    between atoms: C4_7  and  O2_8 
REMARK    5  A    between atoms: C5_10  and  O3_11 
REMARK    6  A    between atoms: C7_14  and  O5_15 
ROOT
HETATM    1  C2  UNL     1     -19.326  65.353  24.793  1.00  0.00     0.168 C 
HETATM    2  C3  UNL     1     -19.360  65.904  26.228  1.00  0.00     0.069 C 
HETATM    3  C4  UNL     1     -20.443  66.979  26.392  1.00  0.00     0.175 C 
HETATM    4  C5  UNL     1     -20.340  68.024  25.260  1.00  0.00     0.290 C 
HETATM    5  O4  UNL     1     -20.371  67.400  23.981  1.00  0.00    -0.327 OA
HETATM    6  C7  UNL     1     -19.268  66.527  23.797  1.00  0.00     0.284 C 
ENDROOT
BRANCH   1   7
HETATM    7  N1  UNL     1     -20.507  64.531  24.519  1.00  0.00    -0.253 NA
HETATM    8  C1  UNL     1     -20.522  63.232  24.552  1.00  0.00     0.243 C 
BRANCH   8   9
HETATM    9  O1  UNL     1     -19.357  62.518  24.838  1.00  0.00    -0.342 OA
HETATM   10  H1  UNL     1     -18.899  62.600  25.737  1.00  0.00     0.219 HD
ENDBRANCH   8   9
BRANCH   8  11
HETATM   11  C8  UNL     1     -21.794  62.492  24.264  1.00  0.00     0.457 C 
HETATM   12  F1  UNL     1     -21.893  62.185  22.918  1.00  0.00    -0.163 F 
HETATM   13  F2  UNL     1     -22.873  63.275  24.627  1.00  0.00    -0.163 F 
HETATM   14  F3  UNL     1     -21.816  61.320  24.997  1.00  0.00    -0.163 F 
ENDBRANCH   8  11
ENDBRANCH   1   7
BRANCH   6  15
HETATM   15  O5  UNL     1     -19.309  66.037  22.482  1.00  0.00    -0.369 OA
HETATM   16  H12 UNL     1     -18.369  65.964  22.170  1.00  0.00     0.212 HD
ENDBRANCH   6  15
BRANCH   3  17
HETATM   17  O2  UNL     1     -21.710  66.374  26.378  1.00  0.00    -0.391 OA
HETATM   18  H6  UNL     1     -21.689  65.646  27.053  1.00  0.00     0.210 HD
ENDBRANCH   3  17
BRANCH   4  19
HETATM   19  O3  UNL     1     -19.170  68.808  25.434  1.00  0.00    -0.363 OA
HETATM   20  C6  UNL     1     -19.322  69.670  26.540  1.00  0.00     0.204 C 
ENDBRANCH   4  19
TORSDOF 6
ENDMDL
MODEL 5
REMARK VINA RESULT:      -5.3      2.190      3.394
REMARK  6 active torsions:
REMARK  status: ('A' for Active; 'I' for Inactive)
REMARK    1  A    between atoms: O1_2  and  C1_3 
REMARK    2  A    between atoms: C1_3  and  C8_17 
REMARK    3  A    between atoms: N1_4  and  C2_5 
REMARK    4  A    between atoms: C4_7  and  O2_8 
REMARK    5  A    between atoms: C5_10  and  O3_11 
REMARK    6  A    between atoms: C7_14  and  O5_15 
ROOT
HETATM    1  C2  UNL     1     -17.798  64.857  23.668  1.00  0.00     0.168 C 
HETATM    2  C3  UNL     1     -17.767  63.709  24.691  1.00  0.00     0.069 C 
HETATM    3  C4  UNL     1     -18.714  62.571  24.288  1.00  0.00     0.175 C 
HETATM    4  C5  UNL     1     -20.108  63.131  23.930  1.00  0.00     0.290 C 
HETATM    5  O4  UNL     1     -20.013  64.148  22.938  1.00  0.00    -0.327 OA
HETATM    6  C7  UNL     1     -19.260  65.259  23.397  1.00  0.00     0.284 C 
ENDROOT
BRANCH   1   7
HETATM    7  N1  UNL     1     -17.155  64.458  22.414  1.00  0.00    -0.253 NA
HETATM    8  C1  UNL     1     -16.460  65.255  21.658  1.00  0.00     0.243 C 
BRANCH   8   9
HETATM    9  O1  UNL     1     -16.301  66.598  22.004  1.00  0.00    -0.342 OA
HETATM   10  H1  UNL     1     -16.513  66.928  22.938  1.00  0.00     0.219 HD
ENDBRANCH   8   9
BRANCH   8  11
HETATM   11  C8  UNL     1     -15.836  64.735  20.398  1.00  0.00     0.457 C 
HETATM   12  F1  UNL     1     -14.732  65.491  20.045  1.00  0.00    -0.163 F 
HETATM   13  F2  UNL     1     -16.762  64.786  19.373  1.00  0.00    -0.163 F 
HETATM   14  F3  UNL     1     -15.443  63.423  20.590  1.00  0.00    -0.163 F 
ENDBRANCH   8  11
ENDBRANCH   1   7
BRANCH   6  15
HETATM   15  O5  UNL     1     -19.303  66.257  22.411  1.00  0.00    -0.369 OA
HETATM   16  H12 UNL     1     -20.078  66.842  22.623  1.00  0.00     0.212 HD
ENDBRANCH   6  15
BRANCH   3  17
HETATM   17  O2  UNL     1     -18.175  61.879  23.191  1.00  0.00    -0.391 OA
HETATM   18  H6  UNL     1     -18.796  62.018  22.429  1.00  0.00     0.210 HD
ENDBRANCH   3  17
BRANCH   4  19
HETATM   19  O3  UNL     1     -20.753  63.601  25.104  1.00  0.00    -0.363 OA
HETATM   20  C6  UNL     1     -21.599  62.601  25.627  1.00  0.00     0.204 C 
ENDBRANCH   4  19
TORSDOF 6
ENDMDL
MODEL 6
REMARK VINA RESULT:      -5.2      5.920      7.901
REMARK  6 active torsions:
REMARK  status: ('A' for Active; 'I' for Inactive)
REMARK    1  A    between atoms: O1_2  and  C1_3 
REMARK    2  A    between atoms: C1_3  and  C8_17 
REMARK    3  A    between atoms: N1_4  and  C2_5 
REMARK    4  A    between atoms: C4_7  and  O2_8 
REMARK    5  A    between atoms: C5_10  and  O3_11 
REMARK    6  A    between atoms: C7_14  and  O5_15 
ROOT
HETATM    1  C2  UNL     1     -21.368  63.580  24.884  1.00  0.00     0.168 C 
HETATM    2  C3  UNL     1     -20.091  64.328  25.302  1.00  0.00     0.069 C 
HETATM    3  C4  UNL     1     -19.405  64.987  24.098  1.00  0.00     0.175 C 
HETATM    4  C5  UNL     1     -19.258  63.975  22.941  1.00  0.00     0.290 C 
HETATM    5  O4  UNL     1     -20.511  63.389  22.610  1.00  0.00    -0.327 OA
HETATM    6  C7  UNL     1     -21.049  62.651  23.696  1.00  0.00     0.284 C 
ENDROOT
BRANCH   1   7
HETATM    7  N1  UNL     1     -22.425  64.520  24.505  1.00  0.00    -0.253 NA
HETATM    8  C1  UNL     1     -23.396  64.888  25.287  1.00  0.00     0.243 C 
BRANCH   8   9
HETATM    9  O1  UNL     1     -23.501  64.367  26.578  1.00  0.00    -0.342 OA
HETATM   10  H1  UNL     1     -23.475  63.369  26.744  1.00  0.00     0.219 HD
ENDBRANCH   8   9
BRANCH   8  11
HETATM   11  C8  UNL     1     -24.420  65.868  24.797  1.00  0.00     0.457 C 
HETATM   12  F1  UNL     1     -25.430  66.034  25.728  1.00  0.00    -0.163 F 
HETATM   13  F2  UNL     1     -24.970  65.405  23.617  1.00  0.00    -0.163 F 
HETATM   14  F3  UNL     1     -23.812  67.088  24.567  1.00  0.00    -0.163 F 
ENDBRANCH   8  11
ENDBRANCH   1   7
BRANCH   6  15
HETATM   15  O5  UNL     1     -22.224  62.019  23.260  1.00  0.00    -0.369 OA
HETATM   16  H12 UNL     1     -22.268  62.137  22.275  1.00  0.00     0.212 HD
ENDBRANCH   6  15
BRANCH   3  17
HETATM   17  O2  UNL     1     -20.160  66.095  23.678  1.00  0.00    -0.391 OA
HETATM   18  H6  UNL     1     -19.701  66.904  24.026  1.00  0.00     0.210 HD
ENDBRANCH   3  17
BRANCH   4  19
HETATM   19  O3  UNL     1     -18.292  62.992  23.283  1.00  0.00    -0.363 OA
HETATM   20  C6  UNL     1     -16.991  63.493  23.063  1.00  0.00     0.204 C 
ENDBRANCH   4  19
TORSDOF 6
ENDMDL
MODEL 7
REMARK VINA RESULT:      -5.2      3.952      5.436
REMARK  6 active torsions:
REMARK  status: ('A' for Active; 'I' for Inactive)
REMARK    1  A    between atoms: O1_2  and  C1_3 
REMARK    2  A    between atoms: C1_3  and  C8_17 
REMARK    3  A    between atoms: N1_4  and  C2_5 
REMARK    4  A    between atoms: C4_7  and  O2_8 
REMARK    5  A    between atoms: C5_10  and  O3_11 
REMARK    6  A    between atoms: C7_14  and  O5_15 
ROOT
HETATM    1  C2  UNL     1     -16.276  63.855  22.669  1.00  0.00     0.168 C 
HETATM    2  C3  UNL     1     -15.435  64.605  23.715  1.00  0.00     0.069 C 
HETATM    3  C4  UNL     1     -15.435  66.118  23.457  1.00  0.00     0.175 C 
HETATM    4  C5  UNL     1     -15.106  66.412  21.977  1.00  0.00     0.290 C 
HETATM    5  O4  UNL     1     -15.982  65.703  21.107  1.00  0.00    -0.327 OA
HETATM    6  C7  UNL     1     -15.847  64.299  21.257  1.00  0.00     0.284 C 
ENDROOT
BRANCH   1   7
HETATM    7  N1  UNL     1     -17.704  64.119  22.857  1.00  0.00    -0.253 NA
HETATM    8  C1  UNL     1     -18.581  63.218  23.184  1.00  0.00     0.243 C 
BRANCH   8   9
HETATM    9  O1  UNL     1     -18.197  61.888  23.359  1.00  0.00    -0.342 OA
HETATM   10  H1  UNL     1     -17.606  61.419  22.684  1.00  0.00     0.219 HD
ENDBRANCH   8   9
BRANCH   8  11
HETATM   11  C8  UNL     1     -20.019  63.604  23.361  1.00  0.00     0.457 C 
HETATM   12  F1  UNL     1     -20.513  63.131  24.564  1.00  0.00    -0.163 F 
HETATM   13  F2  UNL     1     -20.767  63.073  22.328  1.00  0.00    -0.163 F 
HETATM   14  F3  UNL     1     -20.128  64.983  23.339  1.00  0.00    -0.163 F 
ENDBRANCH   8  11
ENDBRANCH   1   7
BRANCH   6  15
HETATM   15  O5  UNL     1     -16.658  63.674  20.297  1.00  0.00    -0.369 OA
HETATM   16  H12 UNL     1     -16.573  64.201  19.458  1.00  0.00     0.212 HD
ENDBRANCH   6  15
BRANCH   3  17
HETATM   17  O2  UNL     1     -16.691  66.650  23.788  1.00  0.00    -0.391 OA
HETATM   18  H6  UNL     1     -17.237  66.641  22.958  1.00  0.00     0.210 HD
ENDBRANCH   3  17
BRANCH   4  19
HETATM   19  O3  UNL     1     -13.745  66.105  21.717  1.00  0.00    -0.363 OA
HETATM   20  C6  UNL     1     -13.218  67.003  20.766  1.00  0.00     0.204 C 
ENDBRANCH   4  19
TORSDOF 6
ENDMDL
MODEL 8
REMARK VINA RESULT:      -5.1      1.725      2.532
REMARK  6 active torsions:
REMARK  status: ('A' for Active; 'I' for Inactive)
REMARK    1  A    between atoms: O1_2  and  C1_3 
REMARK    2  A    between atoms: C1_3  and  C8_17 
REMARK    3  A    between atoms: N1_4  and  C2_5 
REMARK    4  A    between atoms: C4_7  and  O2_8 
REMARK    5  A    between atoms: C5_10  and  O3_11 
REMARK    6  A    between atoms: C7_14  and  O5_15 
ROOT
HETATM    1  C2  UNL     1     -16.751  64.701  23.340  1.00  0.00     0.168 C 
HETATM    2  C3  UNL     1     -18.160  64.094  23.232  1.00  0.00     0.069 C 
HETATM    3  C4  UNL     1     -19.197  65.149  22.825  1.00  0.00     0.175 C 
HETATM    4  C5  UNL     1     -19.061  66.407  23.710  1.00  0.00     0.290 C 
HETATM    5  O4  UNL     1     -17.729  66.907  23.689  1.00  0.00    -0.327 OA
HETATM    6  C7  UNL     1     -16.808  65.966  24.218  1.00  0.00     0.284 C 
ENDROOT
BRANCH   1   7
HETATM    7  N1  UNL     1     -16.225  65.042  22.016  1.00  0.00    -0.253 NA
HETATM    8  C1  UNL     1     -15.696  64.186  21.193  1.00  0.00     0.243 C 
BRANCH   8   9
HETATM    9  O1  UNL     1     -15.574  62.843  21.551  1.00  0.00    -0.342 OA
HETATM   10  H1  UNL     1     -14.668  62.427  21.729  1.00  0.00     0.219 HD
ENDBRANCH   8   9
BRANCH   8  11
HETATM   11  C8  UNL     1     -15.197  64.646  19.856  1.00  0.00     0.457 C 
HETATM   12  F1  UNL     1     -14.322  63.723  19.311  1.00  0.00    -0.163 F 
HETATM   13  F2  UNL     1     -14.543  65.855  20.000  1.00  0.00    -0.163 F 
HETATM   14  F3  UNL     1     -16.271  64.810  18.999  1.00  0.00    -0.163 F 
ENDBRANCH   8  11
ENDBRANCH   1   7
BRANCH   6  15
HETATM   15  O5  UNL     1     -15.541  66.568  24.263  1.00  0.00    -0.369 OA
HETATM   16  H12 UNL     1     -15.422  67.059  23.407  1.00  0.00     0.212 HD
ENDBRANCH   6  15
BRANCH   3  17
HETATM   17  O2  UNL     1     -19.018  65.486  21.474  1.00  0.00    -0.391 OA
HETATM   18  H6  UNL     1     -18.115  65.166  21.214  1.00  0.00     0.210 HD
ENDBRANCH   3  17
BRANCH   4  19
HETATM   19  O3  UNL     1     -19.492  66.116  25.030  1.00  0.00    -0.363 OA
HETATM   20  C6  UNL     1     -20.891  65.933  25.055  1.00  0.00     0.204 C 
ENDBRANCH   4  19
TORSDOF 6
ENDMDL
MODEL 9
REMARK VINA RESULT:      -5.1      4.373      5.977
REMARK  6 active torsions:
REMARK  status: ('A' for Active; 'I' for Inactive)
REMARK    1  A    between atoms: O1_2  and  C1_3 
REMARK    2  A    between atoms: C1_3  and  C8_17 
REMARK    3  A    between atoms: N1_4  and  C2_5 
REMARK    4  A    between atoms: C4_7  and  O2_8 
REMARK    5  A    between atoms: C5_10  and  O3_11 
REMARK    6  A    between atoms: C7_14  and  O5_15 
ROOT
HETATM    1  C2  UNL     1     -18.288  64.937  22.984  1.00  0.00     0.168 C 
HETATM    2  C3  UNL     1     -18.114  65.633  21.623  1.00  0.00     0.069 C 
HETATM    3  C4  UNL     1     -17.298  64.770  20.652  1.00  0.00     0.175 C 
HETATM    4  C5  UNL     1     -16.007  64.266  21.333  1.00  0.00     0.290 C 
HETATM    5  O4  UNL     1     -16.299  63.596  22.554  1.00  0.00    -0.327 OA
HETATM    6  C7  UNL     1     -16.914  64.463  23.494  1.00  0.00     0.284 C 
ENDROOT
BRANCH   1   7
HETATM    7  N1  UNL     1     -19.196  63.793  22.876  1.00  0.00    -0.253 NA
HETATM    8  C1  UNL     1     -20.371  63.732  23.429  1.00  0.00     0.243 C 
BRANCH   8   9
HETATM    9  O1  UNL     1     -20.841  64.789  24.210  1.00  0.00    -0.342 OA
HETATM   10  H1  UNL     1     -20.203  65.409  24.693  1.00  0.00     0.219 HD
ENDBRANCH   8   9
BRANCH   8  11
HETATM   11  C8  UNL     1     -21.223  62.512  23.242  1.00  0.00     0.457 C 
HETATM   12  F1  UNL     1     -20.971  61.917  22.019  1.00  0.00    -0.163 F 
HETATM   13  F2  UNL     1     -22.556  62.870  23.301  1.00  0.00    -0.163 F 
HETATM   14  F3  UNL     1     -20.950  61.606  24.250  1.00  0.00    -0.163 F 
ENDBRANCH   8  11
ENDBRANCH   1   7
BRANCH   6  15
HETATM   15  O5  UNL     1     -17.071  63.763  24.700  1.00  0.00    -0.369 OA
HETATM   16  H12 UNL     1     -17.906  63.231  24.620  1.00  0.00     0.212 HD
ENDBRANCH   6  15
BRANCH   3  17
HETATM   17  O2  UNL     1     -18.076  63.681  20.225  1.00  0.00    -0.391 OA
HETATM   18  H6  UNL     1     -18.308  63.848  19.273  1.00  0.00     0.210 HD
ENDBRANCH   3  17
BRANCH   4  19
HETATM   19  O3  UNL     1     -15.113  65.351  21.530  1.00  0.00    -0.363 OA
HETATM   20  C6  UNL     1     -14.294  65.517  20.393  1.00  0.00     0.204 C 
ENDBRANCH   4  19
TORSDOF 6
ENDMDL
