MODEL 1
REMARK VINA RESULT:      -7.0      0.000      0.000
REMARK  4 active torsions:
REMARK  status: ('A' for Active; 'I' for Inactive)
REMARK    1  A    between atoms: C4_4  and  O1_5 
REMARK    2  A    between atoms: O1_5  and  C5_6 
REMARK    3  A    between atoms: C5_6  and  C6_7 
REMARK    4  A    between atoms: C6_7  and  N1_8 
ROOT
HETATM    1  C1  UNL     1     -21.232  63.226  26.798  1.00  0.00     0.070 C 
HETATM    2  C2  UNL     1     -22.708  63.461  26.860  1.00  0.00     0.034 A 
HETATM    3  C3  UNL     1     -23.279  64.545  26.183  1.00  0.00     0.064 A 
HETATM    4  C4  UNL     1     -24.668  64.759  26.245  1.00  0.00     0.083 A 
HETATM    5  C9  UNL     1     -25.462  63.870  26.994  1.00  0.00     0.026 A 
HETATM    6  C10 UNL     1     -26.856  64.032  27.097  1.00  0.00     0.016 A 
HETATM    7  C11 UNL     1     -27.615  63.131  27.851  1.00  0.00     0.001 A 
HETATM    8  C12 UNL     1     -26.995  62.065  28.507  1.00  0.00     0.002 A 
HETATM    9  C13 UNL     1     -25.611  61.893  28.414  1.00  0.00     0.032 A 
HETATM   10  C14 UNL     1     -24.842  62.789  27.662  1.00  0.00     0.070 A 
HETATM   11  N2  UNL     1     -23.496  62.617  27.577  1.00  0.00    -0.253 NA
ENDROOT
BRANCH   4  12
HETATM   12  O1  UNL     1     -25.282  65.834  25.581  1.00  0.00    -0.348 OA
BRANCH  12  13
HETATM   13  C5  UNL     1     -25.086  66.160  24.208  1.00  0.00     0.203 C 
BRANCH  13  14
HETATM   14  C6  UNL     1     -26.431  66.462  23.554  1.00  0.00     0.261 C 
BRANCH  14  15
HETATM   15  N1  UNL     1     -27.528  66.216  24.506  1.00  0.00    -0.066 N 
HETATM   16  C7  UNL     1     -28.635  65.371  24.009  1.00  0.00     0.262 A 
HETATM   17  C8  UNL     1     -28.814  66.825  24.103  1.00  0.00     0.262 A 
HETATM   18  H9  UNL     1     -27.367  66.212  25.539  1.00  0.00     0.280 HD
ENDBRANCH  14  15
ENDBRANCH  13  14
ENDBRANCH  12  13
ENDBRANCH   4  12
TORSDOF 4
ENDMDL
MODEL 2
REMARK VINA RESULT:      -6.9      1.940      4.914
REMARK  4 active torsions:
REMARK  status: ('A' for Active; 'I' for Inactive)
REMARK    1  A    between atoms: C4_4  and  O1_5 
REMARK    2  A    between atoms: O1_5  and  C5_6 
REMARK    3  A    between atoms: C5_6  and  C6_7 
REMARK    4  A    between atoms: C6_7  and  N1_8 
ROOT
HETATM    1  C1  UNL     1     -26.999  62.408  28.842  1.00  0.00     0.070 C 
HETATM    2  C2  UNL     1     -26.888  63.374  27.705  1.00  0.00     0.034 A 
HETATM    3  C3  UNL     1     -25.667  64.002  27.430  1.00  0.00     0.064 A 
HETATM    4  C4  UNL     1     -25.571  64.909  26.358  1.00  0.00     0.083 A 
HETATM    5  C9  UNL     1     -26.713  65.166  25.577  1.00  0.00     0.026 A 
HETATM    6  C10 UNL     1     -26.681  66.063  24.493  1.00  0.00     0.016 A 
HETATM    7  C11 UNL     1     -27.835  66.297  23.739  1.00  0.00     0.001 A 
HETATM    8  C12 UNL     1     -29.027  65.642  24.056  1.00  0.00     0.002 A 
HETATM    9  C13 UNL     1     -29.073  64.749  25.130  1.00  0.00     0.032 A 
HETATM   10  C14 UNL     1     -27.925  64.507  25.891  1.00  0.00     0.070 A 
HETATM   11  N2  UNL     1     -27.976  63.639  26.935  1.00  0.00    -0.253 NA
ENDROOT
BRANCH   4  12
HETATM   12  O1  UNL     1     -24.366  65.562  26.047  1.00  0.00    -0.348 OA
BRANCH  12  13
HETATM   13  C5  UNL     1     -23.112  64.911  25.864  1.00  0.00     0.203 C 
BRANCH  13  14
HETATM   14  C6  UNL     1     -23.156  64.055  24.602  1.00  0.00     0.261 C 
BRANCH  14  15
HETATM   15  N1  UNL     1     -21.803  63.590  24.254  1.00  0.00    -0.066 N 
HETATM   16  C7  UNL     1     -21.730  62.532  23.224  1.00  0.00     0.262 A 
HETATM   17  C8  UNL     1     -21.539  62.186  24.637  1.00  0.00     0.262 A 
HETATM   18  H9  UNL     1     -20.969  64.215  24.339  1.00  0.00     0.280 HD
ENDBRANCH  14  15
ENDBRANCH  13  14
ENDBRANCH  12  13
ENDBRANCH   4  12
TORSDOF 4
ENDMDL
MODEL 3
REMARK VINA RESULT:      -6.9      2.059      5.242
REMARK  4 active torsions:
REMARK  status: ('A' for Active; 'I' for Inactive)
REMARK    1  A    between atoms: C4_4  and  O1_5 
REMARK    2  A    between atoms: O1_5  and  C5_6 
REMARK    3  A    between atoms: C5_6  and  C6_7 
REMARK    4  A    between atoms: C6_7  and  N1_8 
ROOT
HETATM    1  C1  UNL     1     -22.942  65.921  25.951  1.00  0.00     0.070 C 
HETATM    2  C2  UNL     1     -24.389  65.554  25.856  1.00  0.00     0.034 A 
HETATM    3  C3  UNL     1     -24.939  64.614  26.736  1.00  0.00     0.064 A 
HETATM    4  C4  UNL     1     -26.301  64.276  26.641  1.00  0.00     0.083 A 
HETATM    5  C9  UNL     1     -27.090  64.895  25.653  1.00  0.00     0.026 A 
HETATM    6  C10 UNL     1     -28.458  64.597  25.506  1.00  0.00     0.016 A 
HETATM    7  C11 UNL     1     -29.213  65.230  24.513  1.00  0.00     0.001 A 
HETATM    8  C12 UNL     1     -28.615  66.162  23.662  1.00  0.00     0.002 A 
HETATM    9  C13 UNL     1     -27.257  66.466  23.796  1.00  0.00     0.032 A 
HETATM   10  C14 UNL     1     -26.492  65.839  24.786  1.00  0.00     0.070 A 
HETATM   11  N2  UNL     1     -25.173  66.139  24.911  1.00  0.00    -0.253 NA
ENDROOT
BRANCH   4  12
HETATM   12  O1  UNL     1     -26.893  63.338  27.504  1.00  0.00    -0.348 OA
BRANCH  12  13
HETATM   13  C5  UNL     1     -26.179  62.360  28.254  1.00  0.00     0.203 C 
BRANCH  13  14
HETATM   14  C6  UNL     1     -26.820  62.198  29.629  1.00  0.00     0.261 C 
BRANCH  14  15
HETATM   15  N1  UNL     1     -25.894  62.652  30.679  1.00  0.00    -0.066 N 
HETATM   16  C7  UNL     1     -26.495  63.456  31.766  1.00  0.00     0.262 A 
HETATM   17  C8  UNL     1     -25.709  64.119  30.718  1.00  0.00     0.262 A 
HETATM   18  H9  UNL     1     -25.032  62.111  30.923  1.00  0.00     0.280 HD
ENDBRANCH  14  15
ENDBRANCH  13  14
ENDBRANCH  12  13
ENDBRANCH   4  12
TORSDOF 4
ENDMDL
MODEL 4
REMARK VINA RESULT:      -6.8      3.000      5.373
REMARK  4 active torsions:
REMARK  status: ('A' for Active; 'I' for Inactive)
REMARK    1  A    between atoms: C4_4  and  O1_5 
REMARK    2  A    between atoms: O1_5  and  C5_6 
REMARK    3  A    between atoms: C5_6  and  C6_7 
REMARK    4  A    between atoms: C6_7  and  N1_8 
ROOT
HETATM    1  C1  UNL     1     -25.974  62.989  28.042  1.00  0.00     0.070 C 
HETATM    2  C2  UNL     1     -25.704  63.994  26.968  1.00  0.00     0.034 A 
HETATM    3  C3  UNL     1     -24.387  64.345  26.645  1.00  0.00     0.064 A 
HETATM    4  C4  UNL     1     -24.142  65.291  25.633  1.00  0.00     0.083 A 
HETATM    5  C9  UNL     1     -25.234  65.869  24.959  1.00  0.00     0.026 A 
HETATM    6  C10 UNL     1     -25.054  66.822  23.940  1.00  0.00     0.016 A 
HETATM    7  C11 UNL     1     -26.162  67.378  23.292  1.00  0.00     0.001 A 
HETATM    8  C12 UNL     1     -27.454  66.992  23.653  1.00  0.00     0.002 A 
HETATM    9  C13 UNL     1     -27.648  66.047  24.665  1.00  0.00     0.032 A 
HETATM   10  C14 UNL     1     -26.547  65.484  25.319  1.00  0.00     0.070 A 
HETATM   11  N2  UNL     1     -26.742  64.567  26.303  1.00  0.00    -0.253 NA
ENDROOT
BRANCH   4  12
HETATM   12  O1  UNL     1     -22.837  65.672  25.277  1.00  0.00    -0.348 OA
BRANCH  12  13
HETATM   13  C5  UNL     1     -22.033  66.597  26.002  1.00  0.00     0.203 C 
BRANCH  13  14
HETATM   14  C6  UNL     1     -21.239  67.463  25.029  1.00  0.00     0.261 C 
BRANCH  14  15
HETATM   15  N1  UNL     1     -21.160  68.846  25.525  1.00  0.00    -0.066 N 
HETATM   16  C7  UNL     1     -19.833  69.282  26.013  1.00  0.00     0.262 A 
HETATM   17  C8  UNL     1     -20.888  68.945  26.976  1.00  0.00     0.262 A 
HETATM   18  H9  UNL     1     -21.791  69.597  25.162  1.00  0.00     0.280 HD
ENDBRANCH  14  15
ENDBRANCH  13  14
ENDBRANCH  12  13
ENDBRANCH   4  12
TORSDOF 4
ENDMDL
MODEL 5
REMARK VINA RESULT:      -6.7      1.605      4.852
REMARK  4 active torsions:
REMARK  status: ('A' for Active; 'I' for Inactive)
REMARK    1  A    between atoms: C4_4  and  O1_5 
REMARK    2  A    between atoms: O1_5  and  C5_6 
REMARK    3  A    between atoms: C5_6  and  C6_7 
REMARK    4  A    between atoms: C6_7  and  N1_8 
ROOT
HETATM    1  C1  UNL     1     -26.000  67.372  22.882  1.00  0.00     0.070 C 
HETATM    2  C2  UNL     1     -25.896  66.483  24.081  1.00  0.00     0.034 A 
HETATM    3  C3  UNL     1     -24.653  66.252  24.682  1.00  0.00     0.064 A 
HETATM    4  C4  UNL     1     -24.563  65.416  25.810  1.00  0.00     0.083 A 
HETATM    5  C9  UNL     1     -25.736  64.823  26.315  1.00  0.00     0.026 A 
HETATM    6  C10 UNL     1     -25.712  63.975  27.437  1.00  0.00     0.016 A 
HETATM    7  C11 UNL     1     -26.896  63.402  27.912  1.00  0.00     0.001 A 
HETATM    8  C12 UNL     1     -28.110  63.667  27.275  1.00  0.00     0.002 A 
HETATM    9  C13 UNL     1     -28.149  64.506  26.158  1.00  0.00     0.032 A 
HETATM   10  C14 UNL     1     -26.970  65.085  25.674  1.00  0.00     0.070 A 
HETATM   11  N2  UNL     1     -27.014  65.900  24.588  1.00  0.00    -0.253 NA
ENDROOT
BRANCH   4  12
HETATM   12  O1  UNL     1     -23.337  65.157  26.444  1.00  0.00    -0.348 OA
BRANCH  12  13
HETATM   13  C5  UNL     1     -22.065  65.200  25.803  1.00  0.00     0.203 C 
BRANCH  13  14
HETATM   14  C6  UNL     1     -21.273  63.942  26.148  1.00  0.00     0.261 C 
BRANCH  14  15
HETATM   15  N1  UNL     1     -21.943  62.751  25.600  1.00  0.00    -0.066 N 
HETATM   16  C7  UNL     1     -21.068  61.782  24.904  1.00  0.00     0.262 A 
HETATM   17  C8  UNL     1     -21.923  62.684  24.122  1.00  0.00     0.262 A 
HETATM   18  H9  UNL     1     -22.815  62.365  26.029  1.00  0.00     0.280 HD
ENDBRANCH  14  15
ENDBRANCH  13  14
ENDBRANCH  12  13
ENDBRANCH   4  12
TORSDOF 4
ENDMDL
MODEL 6
REMARK VINA RESULT:      -6.4      2.536      4.991
REMARK  4 active torsions:
REMARK  status: ('A' for Active; 'I' for Inactive)
REMARK    1  A    between atoms: C4_4  and  O1_5 
REMARK    2  A    between atoms: O1_5  and  C5_6 
REMARK    3  A    between atoms: C5_6  and  C6_7 
REMARK    4  A    between atoms: C6_7  and  N1_8 
ROOT
HETATM    1  C1  UNL     1     -26.002  67.379  22.881  1.00  0.00     0.070 C 
HETATM    2  C2  UNL     1     -25.856  66.475  24.063  1.00  0.00     0.034 A 
HETATM    3  C3  UNL     1     -24.592  66.236  24.617  1.00  0.00     0.064 A 
HETATM    4  C4  UNL     1     -24.464  65.385  25.729  1.00  0.00     0.083 A 
HETATM    5  C9  UNL     1     -25.618  64.786  26.268  1.00  0.00     0.026 A 
HETATM    6  C10 UNL     1     -25.554  63.924  27.379  1.00  0.00     0.016 A 
HETATM    7  C11 UNL     1     -26.721  63.345  27.888  1.00  0.00     0.001 A 
HETATM    8  C12 UNL     1     -27.957  63.619  27.298  1.00  0.00     0.002 A 
HETATM    9  C13 UNL     1     -28.035  64.473  26.194  1.00  0.00     0.032 A 
HETATM   10  C14 UNL     1     -26.874  65.058  25.677  1.00  0.00     0.070 A 
HETATM   11  N2  UNL     1     -26.956  65.886  24.603  1.00  0.00    -0.253 NA
ENDROOT
BRANCH   4  12
HETATM   12  O1  UNL     1     -23.215  65.117  26.316  1.00  0.00    -0.348 OA
BRANCH  12  13
HETATM   13  C5  UNL     1     -21.958  65.297  25.670  1.00  0.00     0.203 C 
BRANCH  13  14
HETATM   14  C6  UNL     1     -21.091  66.248  26.489  1.00  0.00     0.261 C 
BRANCH  14  15
HETATM   15  N1  UNL     1     -20.432  67.225  25.607  1.00  0.00    -0.066 N 
HETATM   16  C7  UNL     1     -19.882  68.426  26.271  1.00  0.00     0.262 A 
HETATM   17  C8  UNL     1     -21.139  68.521  25.518  1.00  0.00     0.262 A 
HETATM   18  H9  UNL     1     -19.969  66.934  24.714  1.00  0.00     0.280 HD
ENDBRANCH  14  15
ENDBRANCH  13  14
ENDBRANCH  12  13
ENDBRANCH   4  12
TORSDOF 4
ENDMDL
MODEL 7
REMARK VINA RESULT:      -6.1      3.726      5.663
REMARK  4 active torsions:
REMARK  status: ('A' for Active; 'I' for Inactive)
REMARK    1  A    between atoms: C4_4  and  O1_5 
REMARK    2  A    between atoms: O1_5  and  C5_6 
REMARK    3  A    between atoms: C5_6  and  C6_7 
REMARK    4  A    between atoms: C6_7  and  N1_8 
ROOT
HETATM    1  C1  UNL     1     -21.700  64.126  28.589  1.00  0.00     0.070 C 
HETATM    2  C2  UNL     1     -22.391  64.769  27.429  1.00  0.00     0.034 A 
HETATM    3  C3  UNL     1     -21.655  65.489  26.480  1.00  0.00     0.064 A 
HETATM    4  C4  UNL     1     -22.312  66.090  25.391  1.00  0.00     0.083 A 
HETATM    5  C9  UNL     1     -23.708  65.953  25.276  1.00  0.00     0.026 A 
HETATM    6  C10 UNL     1     -24.423  66.532  24.212  1.00  0.00     0.016 A 
HETATM    7  C11 UNL     1     -25.811  66.377  24.129  1.00  0.00     0.001 A 
HETATM    8  C12 UNL     1     -26.496  65.647  25.103  1.00  0.00     0.002 A 
HETATM    9  C13 UNL     1     -25.799  65.067  26.166  1.00  0.00     0.032 A 
HETATM   10  C14 UNL     1     -24.410  65.216  26.259  1.00  0.00     0.070 A 
HETATM   11  N2  UNL     1     -23.738  64.650  27.296  1.00  0.00    -0.253 NA
ENDROOT
BRANCH   4  12
HETATM   12  O1  UNL     1     -21.613  66.821  24.416  1.00  0.00    -0.348 OA
BRANCH  12  13
HETATM   13  C5  UNL     1     -20.205  67.038  24.417  1.00  0.00     0.203 C 
BRANCH  13  14
HETATM   14  C6  UNL     1     -19.522  65.987  23.546  1.00  0.00     0.261 C 
BRANCH  14  15
HETATM   15  N1  UNL     1     -18.877  66.626  22.387  1.00  0.00    -0.066 N 
HETATM   16  C7  UNL     1     -18.219  65.711  21.429  1.00  0.00     0.262 A 
HETATM   17  C8  UNL     1     -17.405  66.486  22.373  1.00  0.00     0.262 A 
HETATM   18  H9  UNL     1     -19.218  67.537  22.001  1.00  0.00     0.280 HD
ENDBRANCH  14  15
ENDBRANCH  13  14
ENDBRANCH  12  13
ENDBRANCH   4  12
TORSDOF 4
ENDMDL
MODEL 8
REMARK VINA RESULT:      -6.0      2.390      5.250
REMARK  4 active torsions:
REMARK  status: ('A' for Active; 'I' for Inactive)
REMARK    1  A    between atoms: C4_4  and  O1_5 
REMARK    2  A    between atoms: O1_5  and  C5_6 
REMARK    3  A    between atoms: C5_6  and  C6_7 
REMARK    4  A    between atoms: C6_7  and  N1_8 
ROOT
HETATM    1  C1  UNL     1     -25.934  67.341  22.968  1.00  0.00     0.070 C 
HETATM    2  C2  UNL     1     -25.786  66.424  24.141  1.00  0.00     0.034 A 
HETATM    3  C3  UNL     1     -24.516  66.140  24.659  1.00  0.00     0.064 A 
HETATM    4  C4  UNL     1     -24.385  65.278  25.763  1.00  0.00     0.083 A 
HETATM    5  C9  UNL     1     -25.544  64.714  26.329  1.00  0.00     0.026 A 
HETATM    6  C10 UNL     1     -25.478  63.843  27.433  1.00  0.00     0.016 A 
HETATM    7  C11 UNL     1     -26.649  63.299  27.970  1.00  0.00     0.001 A 
HETATM    8  C12 UNL     1     -27.891  63.617  27.416  1.00  0.00     0.002 A 
HETATM    9  C13 UNL     1     -27.971  64.480  26.319  1.00  0.00     0.032 A 
HETATM   10  C14 UNL     1     -26.805  65.030  25.773  1.00  0.00     0.070 A 
HETATM   11  N2  UNL     1     -26.889  65.867  24.707  1.00  0.00    -0.253 NA
ENDROOT
BRANCH   4  12
HETATM   12  O1  UNL     1     -23.131  64.966  26.313  1.00  0.00    -0.348 OA
BRANCH  12  13
HETATM   13  C5  UNL     1     -22.265  65.903  26.947  1.00  0.00     0.203 C 
BRANCH  13  14
HETATM   14  C6  UNL     1     -22.003  65.469  28.386  1.00  0.00     0.261 C 
BRANCH  14  15
HETATM   15  N1  UNL     1     -21.019  66.364  29.018  1.00  0.00    -0.066 N 
HETATM   16  C7  UNL     1     -20.984  66.343  30.496  1.00  0.00     0.262 A 
HETATM   17  C8  UNL     1     -21.627  67.462  29.798  1.00  0.00     0.262 A 
HETATM   18  H9  UNL     1     -20.130  66.630  28.535  1.00  0.00     0.280 HD
ENDBRANCH  14  15
ENDBRANCH  13  14
ENDBRANCH  12  13
ENDBRANCH   4  12
TORSDOF 4
ENDMDL
MODEL 9
REMARK VINA RESULT:      -5.8      2.651      6.008
REMARK  4 active torsions:
REMARK  status: ('A' for Active; 'I' for Inactive)
REMARK    1  A    between atoms: C4_4  and  O1_5 
REMARK    2  A    between atoms: O1_5  and  C5_6 
REMARK    3  A    between atoms: C5_6  and  C6_7 
REMARK    4  A    between atoms: C6_7  and  N1_8 
ROOT
HETATM    1  C1  UNL     1     -20.918  66.748  25.015  1.00  0.00     0.070 C 
HETATM    2  C2  UNL     1     -22.242  66.208  25.452  1.00  0.00     0.034 A 
HETATM    3  C3  UNL     1     -22.343  65.444  26.621  1.00  0.00     0.064 A 
HETATM    4  C4  UNL     1     -23.593  64.941  27.025  1.00  0.00     0.083 A 
HETATM    5  C9  UNL     1     -24.727  65.219  26.239  1.00  0.00     0.026 A 
HETATM    6  C10 UNL     1     -26.004  64.743  26.589  1.00  0.00     0.016 A 
HETATM    7  C11 UNL     1     -27.110  65.037  25.784  1.00  0.00     0.001 A 
HETATM    8  C12 UNL     1     -26.954  65.805  24.628  1.00  0.00     0.002 A 
HETATM    9  C13 UNL     1     -25.691  66.284  24.268  1.00  0.00     0.032 A 
HETATM   10  C14 UNL     1     -24.578  65.996  25.066  1.00  0.00     0.070 A 
HETATM   11  N2  UNL     1     -23.353  66.464  24.710  1.00  0.00    -0.253 NA
ENDROOT
BRANCH   4  12
HETATM   12  O1  UNL     1     -23.739  64.170  28.190  1.00  0.00    -0.348 OA
BRANCH  12  13
HETATM   13  C5  UNL     1     -22.881  63.098  28.568  1.00  0.00     0.203 C 
BRANCH  13  14
HETATM   14  C6  UNL     1     -22.128  63.466  29.844  1.00  0.00     0.261 C 
BRANCH  14  15
HETATM   15  N1  UNL     1     -21.349  62.314  30.327  1.00  0.00    -0.066 N 
HETATM   16  C7  UNL     1     -20.638  62.508  31.609  1.00  0.00     0.262 A 
HETATM   17  C8  UNL     1     -19.889  62.549  30.348  1.00  0.00     0.262 A 
HETATM   18  H9  UNL     1     -21.615  61.331  30.087  1.00  0.00     0.280 HD
ENDBRANCH  14  15
ENDBRANCH  13  14
ENDBRANCH  12  13
ENDBRANCH   4  12
TORSDOF 4
ENDMDL
