MODEL 1
REMARK VINA RESULT:      -7.7      0.000      0.000
REMARK  6 active torsions:
REMARK  status: ('A' for Active; 'I' for Inactive)
REMARK       I    between atoms: C2_2  and  N1_4 
REMARK    1  A    between atoms: N1_4  and  C3_5 
REMARK    2  A    between atoms: C6_8  and  O2_9 
REMARK    3  A    between atoms: O2_9  and  C7_10 
REMARK    4  A    between atoms: C7_10  and  O4_12 
REMARK    5  A    between atoms: O4_12  and  C8_13 
REMARK    6  A    between atoms: C11_16  and  N2_17 
REMARK       I    between atoms: N2_17  and  C12_18 
ROOT
HETATM    1  C7  UNL     1     -21.597  62.921  23.740  1.00  0.00     0.417 C 
HETATM    2  O3  UNL     1     -22.496  62.498  22.962  1.00  0.00    -0.229 OA
ENDROOT
BRANCH   1   3
HETATM    3  O2  UNL     1     -21.875  63.933  24.667  1.00  0.00    -0.255 OA
BRANCH   3   4
HETATM    4  C6  UNL     1     -22.976  63.957  25.535  1.00  0.00     0.081 A 
HETATM    5  C5  UNL     1     -23.201  62.952  26.494  1.00  0.00     0.040 A 
HETATM    6  C4  UNL     1     -24.307  63.024  27.346  1.00  0.00     0.032 A 
HETATM    7  C3  UNL     1     -25.210  64.097  27.251  1.00  0.00     0.034 A 
HETATM    8  C17 UNL     1     -24.959  65.118  26.322  1.00  0.00     0.032 A 
HETATM    9  C16 UNL     1     -23.852  65.046  25.471  1.00  0.00     0.040 A 
BRANCH   7  10
HETATM   10  N1  UNL     1     -26.342  64.206  28.130  1.00  0.00    -0.328 N 
HETATM   11  C2  UNL     1     -27.680  63.827  27.770  1.00  0.00     0.218 C 
HETATM   12  C1  UNL     1     -28.751  63.752  28.810  1.00  0.00     0.117 C 
HETATM   13  O1  UNL     1     -27.978  63.586  26.570  1.00  0.00    -0.274 OA
HETATM   14  H4  UNL     1     -26.200  64.672  29.056  1.00  0.00     0.169 HD
ENDBRANCH   7  10
ENDBRANCH   3   4
ENDBRANCH   1   3
BRANCH   1  15
HETATM   15  O4  UNL     1     -20.279  62.468  23.618  1.00  0.00    -0.255 OA
BRANCH  15  16
HETATM   16  C8  UNL     1     -19.220  63.194  23.050  1.00  0.00     0.081 A 
HETATM   17  C9  UNL     1     -17.928  62.985  23.545  1.00  0.00     0.040 A 
HETATM   18  C10 UNL     1     -16.839  63.676  23.004  1.00  0.00     0.032 A 
HETATM   19  C11 UNL     1     -17.027  64.573  21.937  1.00  0.00     0.034 A 
HETATM   20  C14 UNL     1     -18.322  64.784  21.443  1.00  0.00     0.032 A 
HETATM   21  C15 UNL     1     -19.410  64.092  21.985  1.00  0.00     0.040 A 
BRANCH  19  22
HETATM   22  N2  UNL     1     -15.929  65.314  21.376  1.00  0.00    -0.328 N 
HETATM   23  C12 UNL     1     -15.173  64.893  20.230  1.00  0.00     0.218 C 
HETATM   24  C13 UNL     1     -13.930  65.630  19.849  1.00  0.00     0.117 C 
HETATM   25  O5  UNL     1     -15.589  63.960  19.492  1.00  0.00    -0.274 OA
HETATM   26  H9  UNL     1     -15.719  66.257  21.776  1.00  0.00     0.169 HD
ENDBRANCH  19  22
ENDBRANCH  15  16
ENDBRANCH   1  15
TORSDOF 6
ENDMDL
MODEL 2
REMARK VINA RESULT:      -7.6      0.479     10.040
REMARK  6 active torsions:
REMARK  status: ('A' for Active; 'I' for Inactive)
REMARK       I    between atoms: C2_2  and  N1_4 
REMARK    1  A    between atoms: N1_4  and  C3_5 
REMARK    2  A    between atoms: C6_8  and  O2_9 
REMARK    3  A    between atoms: O2_9  and  C7_10 
REMARK    4  A    between atoms: C7_10  and  O4_12 
REMARK    5  A    between atoms: O4_12  and  C8_13 
REMARK    6  A    between atoms: C11_16  and  N2_17 
REMARK       I    between atoms: N2_17  and  C12_18 
ROOT
HETATM    1  C7  UNL     1     -21.572  63.084  23.669  1.00  0.00     0.417 C 
HETATM    2  O3  UNL     1     -22.419  62.554  22.898  1.00  0.00    -0.229 OA
ENDROOT
BRANCH   1   3
HETATM    3  O2  UNL     1     -20.283  62.550  23.787  1.00  0.00    -0.255 OA
BRANCH   3   4
HETATM    4  C6  UNL     1     -19.108  63.160  23.324  1.00  0.00     0.081 A 
HETATM    5  C5  UNL     1     -17.828  62.704  23.690  1.00  0.00     0.040 A 
HETATM    6  C4  UNL     1     -16.684  63.338  23.194  1.00  0.00     0.032 A 
HETATM    7  C3  UNL     1     -16.800  64.441  22.331  1.00  0.00     0.034 A 
HETATM    8  C17 UNL     1     -18.077  64.866  21.935  1.00  0.00     0.032 A 
HETATM    9  C16 UNL     1     -19.220  64.231  22.431  1.00  0.00     0.040 A 
BRANCH   7  10
HETATM   10  N1  UNL     1     -15.640  65.096  21.789  1.00  0.00    -0.328 N 
HETATM   11  C2  UNL     1     -15.135  64.873  20.463  1.00  0.00     0.218 C 
HETATM   12  C1  UNL     1     -14.072  65.759  19.899  1.00  0.00     0.117 C 
HETATM   13  O1  UNL     1     -15.554  63.906  19.771  1.00  0.00    -0.274 OA
HETATM   14  H4  UNL     1     -15.079  65.705  22.428  1.00  0.00     0.169 HD
ENDBRANCH   7  10
ENDBRANCH   3   4
ENDBRANCH   1   3
BRANCH   1  15
HETATM   15  O4  UNL     1     -21.935  64.146  24.505  1.00  0.00    -0.255 OA
BRANCH  15  16
HETATM   16  C8  UNL     1     -23.082  64.187  25.313  1.00  0.00     0.081 A 
HETATM   17  C9  UNL     1     -23.989  65.237  25.131  1.00  0.00     0.040 A 
HETATM   18  C10 UNL     1     -25.152  65.315  25.904  1.00  0.00     0.032 A 
HETATM   19  C11 UNL     1     -25.437  64.322  26.858  1.00  0.00     0.034 A 
HETATM   20  C14 UNL     1     -24.528  63.271  27.042  1.00  0.00     0.032 A 
HETATM   21  C15 UNL     1     -23.365  63.194  26.268  1.00  0.00     0.040 A 
BRANCH  19  22
HETATM   22  N2  UNL     1     -26.614  64.389  27.683  1.00  0.00    -0.328 N 
HETATM   23  C12 UNL     1     -27.955  64.258  27.187  1.00  0.00     0.218 C 
HETATM   24  C13 UNL     1     -29.112  64.540  28.089  1.00  0.00     0.117 C 
HETATM   25  O5  UNL     1     -28.172  63.826  26.023  1.00  0.00    -0.274 OA
HETATM   26  H9  UNL     1     -26.484  64.456  28.718  1.00  0.00     0.169 HD
ENDBRANCH  19  22
ENDBRANCH  15  16
ENDBRANCH   1  15
TORSDOF 6
ENDMDL
MODEL 3
REMARK VINA RESULT:      -7.5      2.786      3.294
REMARK  6 active torsions:
REMARK  status: ('A' for Active; 'I' for Inactive)
REMARK       I    between atoms: C2_2  and  N1_4 
REMARK    1  A    between atoms: N1_4  and  C3_5 
REMARK    2  A    between atoms: C6_8  and  O2_9 
REMARK    3  A    between atoms: O2_9  and  C7_10 
REMARK    4  A    between atoms: C7_10  and  O4_12 
REMARK    5  A    between atoms: O4_12  and  C8_13 
REMARK    6  A    between atoms: C11_16  and  N2_17 
REMARK       I    between atoms: N2_17  and  C12_18 
ROOT
HETATM    1  C7  UNL     1     -19.446  63.924  23.691  1.00  0.00     0.417 C 
HETATM    2  O3  UNL     1     -19.254  62.699  23.924  1.00  0.00    -0.229 OA
ENDROOT
BRANCH   1   3
HETATM    3  O2  UNL     1     -19.998  64.758  24.670  1.00  0.00    -0.255 OA
BRANCH   3   4
HETATM    4  C6  UNL     1     -21.342  65.156  24.731  1.00  0.00     0.081 A 
HETATM    5  C5  UNL     1     -21.722  66.500  24.902  1.00  0.00     0.040 A 
HETATM    6  C4  UNL     1     -23.075  66.851  24.946  1.00  0.00     0.032 A 
HETATM    7  C3  UNL     1     -24.069  65.866  24.823  1.00  0.00     0.034 A 
HETATM    8  C17 UNL     1     -23.687  64.534  24.610  1.00  0.00     0.032 A 
HETATM    9  C16 UNL     1     -22.334  64.183  24.566  1.00  0.00     0.040 A 
BRANCH   7  10
HETATM   10  N1  UNL     1     -25.467  66.203  24.841  1.00  0.00    -0.328 N 
HETATM   11  C2  UNL     1     -26.185  66.721  23.710  1.00  0.00     0.218 C 
HETATM   12  C1  UNL     1     -27.676  66.825  23.743  1.00  0.00     0.117 C 
HETATM   13  O1  UNL     1     -25.568  67.128  22.689  1.00  0.00    -0.274 OA
HETATM   14  H4  UNL     1     -25.971  66.152  25.757  1.00  0.00     0.169 HD
ENDBRANCH   7  10
ENDBRANCH   3   4
ENDBRANCH   1   3
BRANCH   1  15
HETATM   15  O4  UNL     1     -19.215  64.451  22.415  1.00  0.00    -0.255 OA
BRANCH  15  16
HETATM   16  C8  UNL     1     -17.964  64.845  21.914  1.00  0.00     0.081 A 
HETATM   17  C9  UNL     1     -17.157  65.668  22.708  1.00  0.00     0.040 A 
HETATM   18  C10 UNL     1     -15.898  66.077  22.258  1.00  0.00     0.032 A 
HETATM   19  C11 UNL     1     -15.416  65.645  21.009  1.00  0.00     0.034 A 
HETATM   20  C14 UNL     1     -16.225  64.823  20.213  1.00  0.00     0.032 A 
HETATM   21  C15 UNL     1     -17.485  64.414  20.664  1.00  0.00     0.040 A 
BRANCH  19  22
HETATM   22  N2  UNL     1     -14.135  66.069  20.510  1.00  0.00    -0.328 N 
HETATM   23  C12 UNL     1     -13.063  65.173  20.177  1.00  0.00     0.218 C 
HETATM   24  C13 UNL     1     -11.710  65.721  19.859  1.00  0.00     0.117 C 
HETATM   25  O5  UNL     1     -13.269  63.935  20.067  1.00  0.00    -0.274 OA
HETATM   26  H9  UNL     1     -14.001  67.084  20.301  1.00  0.00     0.169 HD
ENDBRANCH  19  22
ENDBRANCH  15  16
ENDBRANCH   1  15
TORSDOF 6
ENDMDL
MODEL 4
REMARK VINA RESULT:      -7.4      2.558      3.561
REMARK  6 active torsions:
REMARK  status: ('A' for Active; 'I' for Inactive)
REMARK       I    between atoms: C2_2  and  N1_4 
REMARK    1  A    between atoms: N1_4  and  C3_5 
REMARK    2  A    between atoms: C6_8  and  O2_9 
REMARK    3  A    between atoms: O2_9  and  C7_10 
REMARK    4  A    between atoms: C7_10  and  O4_12 
REMARK    5  A    between atoms: O4_12  and  C8_13 
REMARK    6  A    between atoms: C11_16  and  N2_17 
REMARK       I    between atoms: N2_17  and  C12_18 
ROOT
HETATM    1  C7  UNL     1     -22.529  63.270  27.229  1.00  0.00     0.417 C 
HETATM    2  O3  UNL     1     -21.837  63.410  28.275  1.00  0.00    -0.229 OA
ENDROOT
BRANCH   1   3
HETATM    3  O2  UNL     1     -23.606  62.376  27.202  1.00  0.00    -0.255 OA
BRANCH   3   4
HETATM    4  C6  UNL     1     -24.931  62.693  27.534  1.00  0.00     0.081 A 
HETATM    5  C5  UNL     1     -25.619  63.768  26.939  1.00  0.00     0.040 A 
HETATM    6  C4  UNL     1     -26.944  64.040  27.294  1.00  0.00     0.032 A 
HETATM    7  C3  UNL     1     -27.602  63.248  28.250  1.00  0.00     0.034 A 
HETATM    8  C17 UNL     1     -26.927  62.152  28.809  1.00  0.00     0.032 A 
HETATM    9  C16 UNL     1     -25.602  61.880  28.454  1.00  0.00     0.040 A 
BRANCH   7  10
HETATM   10  N1  UNL     1     -28.971  63.492  28.615  1.00  0.00    -0.328 N 
HETATM   11  C2  UNL     1     -29.375  64.316  29.721  1.00  0.00     0.218 C 
HETATM   12  C1  UNL     1     -30.807  64.705  29.890  1.00  0.00     0.117 C 
HETATM   13  O1  UNL     1     -28.535  64.690  30.582  1.00  0.00    -0.274 OA
HETATM   14  H4  UNL     1     -29.716  62.969  28.099  1.00  0.00     0.169 HD
ENDBRANCH   7  10
ENDBRANCH   3   4
ENDBRANCH   1   3
BRANCH   1  15
HETATM   15  O4  UNL     1     -22.168  63.919  26.043  1.00  0.00    -0.255 OA
BRANCH  15  16
HETATM   16  C8  UNL     1     -21.041  63.616  25.263  1.00  0.00     0.081 A 
HETATM   17  C9  UNL     1     -20.592  62.291  25.226  1.00  0.00     0.040 A 
HETATM   18  C10 UNL     1     -19.481  61.937  24.454  1.00  0.00     0.032 A 
HETATM   19  C11 UNL     1     -18.816  62.907  23.683  1.00  0.00     0.034 A 
HETATM   20  C14 UNL     1     -19.264  64.234  23.722  1.00  0.00     0.032 A 
HETATM   21  C15 UNL     1     -20.375  64.587  24.494  1.00  0.00     0.040 A 
BRANCH  19  22
HETATM   22  N2  UNL     1     -17.657  62.577  22.898  1.00  0.00    -0.328 N 
HETATM   23  C12 UNL     1     -16.304  62.710  23.361  1.00  0.00     0.218 C 
HETATM   24  C13 UNL     1     -15.170  62.532  22.404  1.00  0.00     0.117 C 
HETATM   25  O5  UNL     1     -16.056  62.892  24.583  1.00  0.00    -0.274 OA
HETATM   26  H9  UNL     1     -17.808  62.137  21.961  1.00  0.00     0.169 HD
ENDBRANCH  19  22
ENDBRANCH  15  16
ENDBRANCH   1  15
TORSDOF 6
ENDMDL
MODEL 5
REMARK VINA RESULT:      -7.3      1.854      2.032
REMARK  6 active torsions:
REMARK  status: ('A' for Active; 'I' for Inactive)
REMARK       I    between atoms: C2_2  and  N1_4 
REMARK    1  A    between atoms: N1_4  and  C3_5 
REMARK    2  A    between atoms: C6_8  and  O2_9 
REMARK    3  A    between atoms: O2_9  and  C7_10 
REMARK    4  A    between atoms: C7_10  and  O4_12 
REMARK    5  A    between atoms: O4_12  and  C8_13 
REMARK    6  A    between atoms: C11_16  and  N2_17 
REMARK       I    between atoms: N2_17  and  C12_18 
ROOT
HETATM    1  C7  UNL     1     -20.315  63.099  25.195  1.00  0.00     0.417 C 
HETATM    2  O3  UNL     1     -20.118  62.100  25.940  1.00  0.00    -0.229 OA
ENDROOT
BRANCH   1   3
HETATM    3  O2  UNL     1     -20.902  64.263  25.704  1.00  0.00    -0.255 OA
BRANCH   3   4
HETATM    4  C6  UNL     1     -22.276  64.545  25.702  1.00  0.00     0.081 A 
HETATM    5  C5  UNL     1     -23.229  63.653  26.230  1.00  0.00     0.040 A 
HETATM    6  C4  UNL     1     -24.588  63.982  26.216  1.00  0.00     0.032 A 
HETATM    7  C3  UNL     1     -25.018  65.204  25.671  1.00  0.00     0.034 A 
HETATM    8  C17 UNL     1     -24.062  66.108  25.185  1.00  0.00     0.032 A 
HETATM    9  C16 UNL     1     -22.703  65.779  25.199  1.00  0.00     0.040 A 
BRANCH   7  10
HETATM   10  N1  UNL     1     -26.407  65.576  25.665  1.00  0.00    -0.328 N 
HETATM   11  C2  UNL     1     -27.174  65.806  24.472  1.00  0.00     0.218 C 
HETATM   12  C1  UNL     1     -28.659  65.959  24.546  1.00  0.00     0.117 C 
HETATM   13  O1  UNL     1     -26.604  65.917  23.354  1.00  0.00    -0.274 OA
HETATM   14  H4  UNL     1     -26.863  65.777  26.585  1.00  0.00     0.169 HD
ENDBRANCH   7  10
ENDBRANCH   3   4
ENDBRANCH   1   3
BRANCH   1  15
HETATM   15  O4  UNL     1     -20.054  63.026  23.822  1.00  0.00    -0.255 OA
BRANCH  15  16
HETATM   16  C8  UNL     1     -18.966  63.627  23.169  1.00  0.00     0.081 A 
HETATM   17  C9  UNL     1     -17.681  63.136  23.426  1.00  0.00     0.040 A 
HETATM   18  C10 UNL     1     -16.567  63.693  22.791  1.00  0.00     0.032 A 
HETATM   19  C11 UNL     1     -16.727  64.741  21.867  1.00  0.00     0.034 A 
HETATM   20  C14 UNL     1     -18.014  65.235  21.612  1.00  0.00     0.032 A 
HETATM   21  C15 UNL     1     -19.128  64.676  22.247  1.00  0.00     0.040 A 
BRANCH  19  22
HETATM   22  N2  UNL     1     -15.597  65.349  21.217  1.00  0.00    -0.328 N 
HETATM   23  C12 UNL     1     -15.025  64.879  19.986  1.00  0.00     0.218 C 
HETATM   24  C13 UNL     1     -13.735  65.455  19.499  1.00  0.00     0.117 C 
HETATM   25  O5  UNL     1     -15.639  64.046  19.268  1.00  0.00    -0.274 OA
HETATM   26  H9  UNL     1     -15.217  66.236  21.620  1.00  0.00     0.169 HD
ENDBRANCH  19  22
ENDBRANCH  15  16
ENDBRANCH   1  15
TORSDOF 6
ENDMDL
MODEL 6
REMARK VINA RESULT:      -7.2      2.021      9.522
REMARK  6 active torsions:
REMARK  status: ('A' for Active; 'I' for Inactive)
REMARK       I    between atoms: C2_2  and  N1_4 
REMARK    1  A    between atoms: N1_4  and  C3_5 
REMARK    2  A    between atoms: C6_8  and  O2_9 
REMARK    3  A    between atoms: O2_9  and  C7_10 
REMARK    4  A    between atoms: C7_10  and  O4_12 
REMARK    5  A    between atoms: O4_12  and  C8_13 
REMARK    6  A    between atoms: C11_16  and  N2_17 
REMARK       I    between atoms: N2_17  and  C12_18 
ROOT
HETATM    1  C7  UNL     1     -21.174  62.829  25.810  1.00  0.00     0.417 C 
HETATM    2  O3  UNL     1     -21.236  61.713  25.226  1.00  0.00    -0.229 OA
ENDROOT
BRANCH   1   3
HETATM    3  O2  UNL     1     -20.085  63.684  25.602  1.00  0.00    -0.255 OA
BRANCH   3   4
HETATM    4  C6  UNL     1     -19.317  63.747  24.430  1.00  0.00     0.081 A 
HETATM    5  C5  UNL     1     -19.760  64.416  23.274  1.00  0.00     0.040 A 
HETATM    6  C4  UNL     1     -18.953  64.461  22.132  1.00  0.00     0.032 A 
HETATM    7  C3  UNL     1     -17.695  63.835  22.125  1.00  0.00     0.034 A 
HETATM    8  C17 UNL     1     -17.240  63.205  23.292  1.00  0.00     0.032 A 
HETATM    9  C16 UNL     1     -18.046  63.161  24.434  1.00  0.00     0.040 A 
BRANCH   7  10
HETATM   10  N1  UNL     1     -16.838  63.886  20.972  1.00  0.00    -0.328 N 
HETATM   11  C2  UNL     1     -15.873  64.924  20.731  1.00  0.00     0.218 C 
HETATM   12  C1  UNL     1     -14.866  64.781  19.636  1.00  0.00     0.117 C 
HETATM   13  O1  UNL     1     -15.886  65.983  21.414  1.00  0.00    -0.274 OA
HETATM   14  H4  UNL     1     -16.985  63.174  20.220  1.00  0.00     0.169 HD
ENDBRANCH   7  10
ENDBRANCH   3   4
ENDBRANCH   1   3
BRANCH   1  15
HETATM   15  O4  UNL     1     -22.135  63.189  26.762  1.00  0.00    -0.255 OA
BRANCH  15  16
HETATM   16  C8  UNL     1     -23.364  63.808  26.481  1.00  0.00     0.081 A 
HETATM   17  C9  UNL     1     -24.533  63.231  26.991  1.00  0.00     0.040 A 
HETATM   18  C10 UNL     1     -25.779  63.816  26.749  1.00  0.00     0.032 A 
HETATM   19  C11 UNL     1     -25.871  65.009  26.009  1.00  0.00     0.034 A 
HETATM   20  C14 UNL     1     -24.701  65.585  25.497  1.00  0.00     0.032 A 
HETATM   21  C15 UNL     1     -23.454  64.999  25.740  1.00  0.00     0.040 A 
BRANCH  19  22
HETATM   22  N2  UNL     1     -27.141  65.621  25.725  1.00  0.00    -0.328 N 
HETATM   23  C12 UNL     1     -27.532  66.104  24.431  1.00  0.00     0.218 C 
HETATM   24  C13 UNL     1     -28.787  66.901  24.284  1.00  0.00     0.117 C 
HETATM   25  O5  UNL     1     -26.874  65.794  23.402  1.00  0.00    -0.274 OA
HETATM   26  H9  UNL     1     -27.856  65.644  26.488  1.00  0.00     0.169 HD
ENDBRANCH  19  22
ENDBRANCH  15  16
ENDBRANCH   1  15
TORSDOF 6
ENDMDL
MODEL 7
REMARK VINA RESULT:      -7.2      2.765     10.271
REMARK  6 active torsions:
REMARK  status: ('A' for Active; 'I' for Inactive)
REMARK       I    between atoms: C2_2  and  N1_4 
REMARK    1  A    between atoms: N1_4  and  C3_5 
REMARK    2  A    between atoms: C6_8  and  O2_9 
REMARK    3  A    between atoms: O2_9  and  C7_10 
REMARK    4  A    between atoms: C7_10  and  O4_12 
REMARK    5  A    between atoms: O4_12  and  C8_13 
REMARK    6  A    between atoms: C11_16  and  N2_17 
REMARK       I    between atoms: N2_17  and  C12_18 
ROOT
HETATM    1  C7  UNL     1     -19.414  64.184  23.497  1.00  0.00     0.417 C 
HETATM    2  O3  UNL     1     -19.227  62.936  23.483  1.00  0.00    -0.229 OA
ENDROOT
BRANCH   1   3
HETATM    3  O2  UNL     1     -18.885  64.995  22.486  1.00  0.00    -0.255 OA
BRANCH   3   4
HETATM    4  C6  UNL     1     -17.588  64.895  21.962  1.00  0.00     0.081 A 
HETATM    5  C5  UNL     1     -17.343  64.562  20.617  1.00  0.00     0.040 A 
HETATM    6  C4  UNL     1     -16.032  64.485  20.137  1.00  0.00     0.032 A 
HETATM    7  C3  UNL     1     -14.945  64.733  20.992  1.00  0.00     0.034 A 
HETATM    8  C17 UNL     1     -15.195  65.106  22.321  1.00  0.00     0.032 A 
HETATM    9  C16 UNL     1     -16.506  65.184  22.801  1.00  0.00     0.040 A 
BRANCH   7  10
HETATM   10  N1  UNL     1     -13.589  64.683  20.518  1.00  0.00    -0.328 N 
HETATM   11  C2  UNL     1     -12.825  65.839  20.138  1.00  0.00     0.218 C 
HETATM   12  C1  UNL     1     -11.358  65.725  19.880  1.00  0.00     0.117 C 
HETATM   13  O1  UNL     1     -13.387  66.956  19.982  1.00  0.00    -0.274 OA
HETATM   14  H4  UNL     1     -13.162  63.742  20.356  1.00  0.00     0.169 HD
ENDBRANCH   7  10
ENDBRANCH   3   4
ENDBRANCH   1   3
BRANCH   1  15
HETATM   15  O4  UNL     1     -20.057  64.796  24.579  1.00  0.00    -0.255 OA
BRANCH  15  16
HETATM   16  C8  UNL     1     -21.425  65.104  24.642  1.00  0.00     0.081 A 
HETATM   17  C9  UNL     1     -22.348  64.053  24.586  1.00  0.00     0.040 A 
HETATM   18  C10 UNL     1     -23.721  64.307  24.657  1.00  0.00     0.032 A 
HETATM   19  C11 UNL     1     -24.191  65.623  24.811  1.00  0.00     0.034 A 
HETATM   20  C14 UNL     1     -23.267  66.676  24.865  1.00  0.00     0.032 A 
HETATM   21  C15 UNL     1     -21.894  66.420  24.794  1.00  0.00     0.040 A 
BRANCH  19  22
HETATM   22  N2  UNL     1     -25.599  65.917  24.864  1.00  0.00    -0.328 N 
HETATM   23  C12 UNL     1     -26.331  66.546  23.801  1.00  0.00     0.218 C 
HETATM   24  C13 UNL     1     -27.740  66.988  24.031  1.00  0.00     0.117 C 
HETATM   25  O5  UNL     1     -25.830  66.656  22.650  1.00  0.00    -0.274 OA
HETATM   26  H9  UNL     1     -26.139  65.581  25.693  1.00  0.00     0.169 HD
ENDBRANCH  19  22
ENDBRANCH  15  16
ENDBRANCH   1  15
TORSDOF 6
ENDMDL
MODEL 8
REMARK VINA RESULT:      -7.1      2.237      9.969
REMARK  6 active torsions:
REMARK  status: ('A' for Active; 'I' for Inactive)
REMARK       I    between atoms: C2_2  and  N1_4 
REMARK    1  A    between atoms: N1_4  and  C3_5 
REMARK    2  A    between atoms: C6_8  and  O2_9 
REMARK    3  A    between atoms: O2_9  and  C7_10 
REMARK    4  A    between atoms: C7_10  and  O4_12 
REMARK    5  A    between atoms: O4_12  and  C8_13 
REMARK    6  A    between atoms: C11_16  and  N2_17 
REMARK       I    between atoms: N2_17  and  C12_18 
ROOT
HETATM    1  C7  UNL     1     -20.554  65.205  24.772  1.00  0.00     0.417 C 
HETATM    2  O3  UNL     1     -20.947  64.325  23.959  1.00  0.00    -0.229 OA
ENDROOT
BRANCH   1   3
HETATM    3  O2  UNL     1     -19.195  65.333  25.083  1.00  0.00    -0.255 OA
BRANCH   3   4
HETATM    4  C6  UNL     1     -18.138  65.178  24.174  1.00  0.00     0.081 A 
HETATM    5  C5  UNL     1     -17.521  63.935  23.940  1.00  0.00     0.040 A 
HETATM    6  C4  UNL     1     -16.478  63.827  23.016  1.00  0.00     0.032 A 
HETATM    7  C3  UNL     1     -16.031  64.959  22.313  1.00  0.00     0.034 A 
HETATM    8  C17 UNL     1     -16.676  66.187  22.517  1.00  0.00     0.032 A 
HETATM    9  C16 UNL     1     -17.720  66.295  23.442  1.00  0.00     0.040 A 
BRANCH   7  10
HETATM   10  N1  UNL     1     -14.975  64.871  21.340  1.00  0.00    -0.328 N 
HETATM   11  C2  UNL     1     -15.193  64.710  19.929  1.00  0.00     0.218 C 
HETATM   12  C1  UNL     1     -14.059  64.861  18.967  1.00  0.00     0.117 C 
HETATM   13  O1  UNL     1     -16.332  64.405  19.486  1.00  0.00    -0.274 OA
HETATM   14  H4  UNL     1     -13.990  64.833  21.689  1.00  0.00     0.169 HD
ENDBRANCH   7  10
ENDBRANCH   3   4
ENDBRANCH   1   3
BRANCH   1  15
HETATM   15  O4  UNL     1     -21.476  65.999  25.465  1.00  0.00    -0.255 OA
BRANCH  15  16
HETATM   16  C8  UNL     1     -22.871  65.844  25.425  1.00  0.00     0.081 A 
HETATM   17  C9  UNL     1     -23.600  66.602  24.502  1.00  0.00     0.040 A 
HETATM   18  C10 UNL     1     -24.989  66.475  24.416  1.00  0.00     0.032 A 
HETATM   19  C11 UNL     1     -25.670  65.562  25.241  1.00  0.00     0.034 A 
HETATM   20  C14 UNL     1     -24.940  64.804  26.167  1.00  0.00     0.032 A 
HETATM   21  C15 UNL     1     -23.550  64.932  26.252  1.00  0.00     0.040 A 
BRANCH  19  22
HETATM   22  N2  UNL     1     -27.102  65.426  25.191  1.00  0.00    -0.328 N 
HETATM   23  C12 UNL     1     -27.902  65.746  24.043  1.00  0.00     0.218 C 
HETATM   24  C13 UNL     1     -29.392  65.761  24.158  1.00  0.00     0.117 C 
HETATM   25  O5  UNL     1     -27.368  65.933  22.917  1.00  0.00    -0.274 OA
HETATM   26  H9  UNL     1     -27.582  64.992  26.012  1.00  0.00     0.169 HD
ENDBRANCH  19  22
ENDBRANCH  15  16
ENDBRANCH   1  15
TORSDOF 6
ENDMDL
MODEL 9
REMARK VINA RESULT:      -7.0      2.163     10.618
REMARK  6 active torsions:
REMARK  status: ('A' for Active; 'I' for Inactive)
REMARK       I    between atoms: C2_2  and  N1_4 
REMARK    1  A    between atoms: N1_4  and  C3_5 
REMARK    2  A    between atoms: C6_8  and  O2_9 
REMARK    3  A    between atoms: O2_9  and  C7_10 
REMARK    4  A    between atoms: C7_10  and  O4_12 
REMARK    5  A    between atoms: O4_12  and  C8_13 
REMARK    6  A    between atoms: C11_16  and  N2_17 
REMARK       I    between atoms: N2_17  and  C12_18 
ROOT
HETATM    1  C7  UNL     1     -23.890  65.108  25.174  1.00  0.00     0.417 C 
HETATM    2  O3  UNL     1     -23.235  66.059  25.682  1.00  0.00    -0.229 OA
ENDROOT
BRANCH   1   3
HETATM    3  O2  UNL     1     -23.250  63.920  24.801  1.00  0.00    -0.255 OA
BRANCH   3   4
HETATM    4  C6  UNL     1     -21.998  63.837  24.175  1.00  0.00     0.081 A 
HETATM    5  C5  UNL     1     -20.929  64.688  24.513  1.00  0.00     0.040 A 
HETATM    6  C4  UNL     1     -19.695  64.561  23.868  1.00  0.00     0.032 A 
HETATM    7  C3  UNL     1     -19.509  63.585  22.873  1.00  0.00     0.034 A 
HETATM    8  C17 UNL     1     -20.563  62.712  22.570  1.00  0.00     0.032 A 
HETATM    9  C16 UNL     1     -21.798  62.839  23.214  1.00  0.00     0.040 A 
BRANCH   7  10
HETATM   10  N1  UNL     1     -18.243  63.419  22.212  1.00  0.00    -0.328 N 
HETATM   11  C2  UNL     1     -17.655  64.398  21.340  1.00  0.00     0.218 C 
HETATM   12  C1  UNL     1     -16.240  64.249  20.882  1.00  0.00     0.117 C 
HETATM   13  O1  UNL     1     -18.333  65.374  20.922  1.00  0.00    -0.274 OA
HETATM   14  H4  UNL     1     -17.763  62.493  22.301  1.00  0.00     0.169 HD
ENDBRANCH   7  10
ENDBRANCH   3   4
ENDBRANCH   1   3
BRANCH   1  15
HETATM   15  O4  UNL     1     -25.248  65.260  24.870  1.00  0.00    -0.255 OA
BRANCH  15  16
HETATM   16  C8  UNL     1     -26.312  64.949  25.730  1.00  0.00     0.081 A 
HETATM   17  C9  UNL     1     -26.019  64.376  26.973  1.00  0.00     0.040 A 
HETATM   18  C10 UNL     1     -27.044  64.059  27.870  1.00  0.00     0.032 A 
HETATM   19  C11 UNL     1     -28.384  64.336  27.543  1.00  0.00     0.034 A 
HETATM   20  C14 UNL     1     -28.677  64.908  26.298  1.00  0.00     0.032 A 
HETATM   21  C15 UNL     1     -27.651  65.225  25.401  1.00  0.00     0.040 A 
BRANCH  19  22
HETATM   22  N2  UNL     1     -29.460  64.000  28.436  1.00  0.00    -0.328 N 
HETATM   23  C12 UNL     1     -30.119  64.942  29.296  1.00  0.00     0.218 C 
HETATM   24  C13 UNL     1     -31.086  64.457  30.327  1.00  0.00     0.117 C 
HETATM   25  O5  UNL     1     -29.956  66.182  29.138  1.00  0.00    -0.274 OA
HETATM   26  H9  UNL     1     -29.842  63.027  28.400  1.00  0.00     0.169 HD
ENDBRANCH  19  22
ENDBRANCH  15  16
ENDBRANCH   1  15
TORSDOF 6
ENDMDL
