MODEL 1
REMARK VINA RESULT:      -8.4      0.000      0.000
REMARK  3 active torsions:
REMARK  status: ('A' for Active; 'I' for Inactive)
REMARK    1  A    between atoms: C1_3  and  O1_4 
REMARK    2  A    between atoms: C1_3  and  C2_6 
REMARK    3  A    between atoms: C7_12  and  C8_13 
ROOT
HETATM    1  C2  UNL     1     -27.162  66.157  23.864  1.00  0.00     0.047 A 
HETATM    2  C3  UNL     1     -28.557  65.977  23.704  1.00  0.00     0.018 A 
HETATM    3  C4  UNL     1     -29.301  65.218  24.636  1.00  0.00     0.003 A 
HETATM    4  C5  UNL     1     -28.667  64.627  25.742  1.00  0.00     0.034 A 
HETATM    5  C6  UNL     1     -27.297  64.820  25.880  1.00  0.00     0.088 A 
HETATM    6  N2  UNL     1     -26.502  64.340  26.847  1.00  0.00    -0.229 NA
HETATM    7  C7  UNL     1     -25.282  64.829  26.500  1.00  0.00     0.163 A 
HETATM    8  N4  UNL     1     -25.281  65.560  25.354  1.00  0.00    -0.228 NA
HETATM    9  C13 UNL     1     -26.572  65.550  24.986  1.00  0.00     0.102 A 
ENDROOT
BRANCH   7  10
HETATM   10  C8  UNL     1     -24.015  64.484  27.256  1.00  0.00     0.183 C 
HETATM   11  C9  UNL     1     -24.352  64.429  28.763  1.00  0.00     0.055 C 
HETATM   12  C10 UNL     1     -23.435  63.144  26.791  1.00  0.00     0.048 C 
HETATM   13  C11 UNL     1     -21.940  63.273  27.016  1.00  0.00     0.030 C 
HETATM   14  C12 UNL     1     -21.675  64.769  27.159  1.00  0.00     0.233 C 
HETATM   15  N3  UNL     1     -22.952  65.473  26.999  1.00  0.00    -0.059 N 
HETATM   16  H15 UNL     1     -23.009  65.824  26.013  1.00  0.00     0.278 HD
HETATM   17  H16 UNL     1     -23.008  66.292  27.650  1.00  0.00     0.278 HD
ENDBRANCH   7  10
BRANCH   1  18
HETATM   18  C1  UNL     1     -26.388  66.951  22.879  1.00  0.00     0.167 C 
HETATM   19  N1  UNL     1     -25.506  67.814  23.275  1.00  0.00    -0.277 NA
HETATM   20  H1  UNL     1     -24.952  68.382  22.595  1.00  0.00     0.189 HD
BRANCH  18  21
HETATM   21  O1  UNL     1     -26.613  66.766  21.515  1.00  0.00    -0.344 OA
HETATM   22  H2  UNL     1     -27.488  66.395  21.166  1.00  0.00     0.219 HD
ENDBRANCH  18  21
ENDBRANCH   1  18
TORSDOF 3
ENDMDL
MODEL 2
REMARK VINA RESULT:      -8.3      2.212      3.009
REMARK  3 active torsions:
REMARK  status: ('A' for Active; 'I' for Inactive)
REMARK    1  A    between atoms: C1_3  and  O1_4 
REMARK    2  A    between atoms: C1_3  and  C2_6 
REMARK    3  A    between atoms: C7_12  and  C8_13 
ROOT
HETATM    1  C2  UNL     1     -26.229  66.218  24.327  1.00  0.00     0.047 A 
HETATM    2  C3  UNL     1     -27.307  65.526  24.932  1.00  0.00     0.018 A 
HETATM    3  C4  UNL     1     -27.103  64.739  26.087  1.00  0.00     0.003 A 
HETATM    4  C5  UNL     1     -25.824  64.627  26.658  1.00  0.00     0.034 A 
HETATM    5  C6  UNL     1     -24.783  65.318  26.049  1.00  0.00     0.088 A 
HETATM    6  N2  UNL     1     -23.495  65.340  26.421  1.00  0.00    -0.229 NA
HETATM    7  C7  UNL     1     -22.931  66.159  25.494  1.00  0.00     0.163 A 
HETATM    8  N4  UNL     1     -23.800  66.617  24.554  1.00  0.00    -0.228 NA
HETATM    9  C13 UNL     1     -24.969  66.080  24.934  1.00  0.00     0.102 A 
ENDROOT
BRANCH   7  10
HETATM   10  C8  UNL     1     -21.442  66.434  25.440  1.00  0.00     0.183 C 
HETATM   11  C9  UNL     1     -21.085  67.391  26.599  1.00  0.00     0.055 C 
HETATM   12  C10 UNL     1     -20.630  65.138  25.551  1.00  0.00     0.048 C 
HETATM   13  C11 UNL     1     -19.353  65.417  24.781  1.00  0.00     0.030 C 
HETATM   14  C12 UNL     1     -19.658  66.632  23.908  1.00  0.00     0.233 C 
HETATM   15  N3  UNL     1     -21.053  67.022  24.145  1.00  0.00    -0.059 N 
HETATM   16  H15 UNL     1     -21.637  66.624  23.372  1.00  0.00     0.278 HD
HETATM   17  H16 UNL     1     -21.152  68.065  24.137  1.00  0.00     0.278 HD
ENDBRANCH   7  10
BRANCH   1  18
HETATM   18  C1  UNL     1     -26.450  67.040  23.112  1.00  0.00     0.167 C 
HETATM   19  N1  UNL     1     -27.185  66.598  22.140  1.00  0.00    -0.277 NA
HETATM   20  H1  UNL     1     -27.351  67.164  21.278  1.00  0.00     0.189 HD
BRANCH  18  21
HETATM   21  O1  UNL     1     -25.860  68.301  23.016  1.00  0.00    -0.344 OA
HETATM   22  H2  UNL     1     -25.240  68.654  23.735  1.00  0.00     0.219 HD
ENDBRANCH  18  21
ENDBRANCH   1  18
TORSDOF 3
ENDMDL
MODEL 3
REMARK VINA RESULT:      -8.3      1.709      2.298
REMARK  3 active torsions:
REMARK  status: ('A' for Active; 'I' for Inactive)
REMARK    1  A    between atoms: C1_3  and  O1_4 
REMARK    2  A    between atoms: C1_3  and  C2_6 
REMARK    3  A    between atoms: C7_12  and  C8_13 
ROOT
HETATM    1  C2  UNL     1     -26.477  66.100  24.186  1.00  0.00     0.047 A 
HETATM    2  C3  UNL     1     -27.668  66.162  23.423  1.00  0.00     0.018 A 
HETATM    3  C4  UNL     1     -28.843  65.510  23.861  1.00  0.00     0.003 A 
HETATM    4  C5  UNL     1     -28.850  64.785  25.065  1.00  0.00     0.034 A 
HETATM    5  C6  UNL     1     -27.670  64.741  25.799  1.00  0.00     0.088 A 
HETATM    6  N2  UNL     1     -27.458  64.104  26.959  1.00  0.00    -0.229 NA
HETATM    7  C7  UNL     1     -26.157  64.392  27.224  1.00  0.00     0.163 A 
HETATM    8  N4  UNL     1     -25.550  65.149  26.272  1.00  0.00    -0.228 NA
HETATM    9  C13 UNL     1     -26.532  65.367  25.385  1.00  0.00     0.102 A 
ENDROOT
BRANCH   7  10
HETATM   10  C8  UNL     1     -25.415  63.816  28.413  1.00  0.00     0.183 C 
HETATM   11  C9  UNL     1     -25.335  62.283  28.235  1.00  0.00     0.055 C 
HETATM   12  C10 UNL     1     -24.008  64.412  28.536  1.00  0.00     0.048 C 
HETATM   13  C11 UNL     1     -23.699  64.367  30.021  1.00  0.00     0.030 C 
HETATM   14  C12 UNL     1     -25.047  64.188  30.714  1.00  0.00     0.233 C 
HETATM   15  N3  UNL     1     -26.088  64.155  29.680  1.00  0.00    -0.059 N 
HETATM   16  H15 UNL     1     -26.518  65.109  29.623  1.00  0.00     0.278 HD
HETATM   17  H16 UNL     1     -26.836  63.464  29.929  1.00  0.00     0.278 HD
ENDBRANCH   7  10
BRANCH   1  18
HETATM   18  C1  UNL     1     -25.247  66.784  23.719  1.00  0.00     0.167 C 
HETATM   19  N1  UNL     1     -25.287  67.597  22.711  1.00  0.00    -0.277 NA
HETATM   20  H1  UNL     1     -24.430  68.087  22.368  1.00  0.00     0.189 HD
BRANCH  18  21
HETATM   21  O1  UNL     1     -24.036  66.548  24.371  1.00  0.00    -0.344 OA
HETATM   22  H2  UNL     1     -23.721  65.609  24.584  1.00  0.00     0.219 HD
ENDBRANCH  18  21
ENDBRANCH   1  18
TORSDOF 3
ENDMDL
MODEL 4
REMARK VINA RESULT:      -7.9      2.410      3.670
REMARK  3 active torsions:
REMARK  status: ('A' for Active; 'I' for Inactive)
REMARK    1  A    between atoms: C1_3  and  O1_4 
REMARK    2  A    between atoms: C1_3  and  C2_6 
REMARK    3  A    between atoms: C7_12  and  C8_13 
ROOT
HETATM    1  C2  UNL     1     -26.938  66.063  24.418  1.00  0.00     0.047 A 
HETATM    2  C3  UNL     1     -25.873  66.642  23.686  1.00  0.00     0.018 A 
HETATM    3  C4  UNL     1     -24.539  66.530  24.138  1.00  0.00     0.003 A 
HETATM    4  C5  UNL     1     -24.244  65.839  25.326  1.00  0.00     0.034 A 
HETATM    5  C6  UNL     1     -25.305  65.276  26.025  1.00  0.00     0.088 A 
HETATM    6  N2  UNL     1     -25.247  64.590  27.176  1.00  0.00    -0.229 NA
HETATM    7  C7  UNL     1     -26.550  64.277  27.402  1.00  0.00     0.163 A 
HETATM    8  N4  UNL     1     -27.409  64.760  26.466  1.00  0.00    -0.228 NA
HETATM    9  C13 UNL     1     -26.595  65.379  25.598  1.00  0.00     0.102 A 
ENDROOT
BRANCH   7  10
HETATM   10  C8  UNL     1     -27.016  63.561  28.654  1.00  0.00     0.183 C 
HETATM   11  C9  UNL     1     -28.561  63.598  28.685  1.00  0.00     0.055 C 
HETATM   12  C10 UNL     1     -26.518  62.112  28.687  1.00  0.00     0.048 C 
HETATM   13  C11 UNL     1     -26.386  61.784  30.163  1.00  0.00     0.030 C 
HETATM   14  C12 UNL     1     -26.367  63.130  30.881  1.00  0.00     0.233 C 
HETATM   15  N3  UNL     1     -26.459  64.186  29.867  1.00  0.00    -0.059 N 
HETATM   16  H15 UNL     1     -25.492  64.546  29.683  1.00  0.00     0.278 HD
HETATM   17  H16 UNL     1     -27.051  64.980  30.212  1.00  0.00     0.278 HD
ENDBRANCH   7  10
BRANCH   1  18
HETATM   18  C1  UNL     1     -28.336  66.188  23.939  1.00  0.00     0.167 C 
HETATM   19  N1  UNL     1     -29.045  65.133  23.689  1.00  0.00    -0.277 NA
HETATM   20  H1  UNL     1     -30.031  65.203  23.351  1.00  0.00     0.189 HD
BRANCH  18  21
HETATM   21  O1  UNL     1     -28.891  67.456  23.757  1.00  0.00    -0.344 OA
HETATM   22  H2  UNL     1     -28.331  68.243  23.453  1.00  0.00     0.219 HD
ENDBRANCH  18  21
ENDBRANCH   1  18
TORSDOF 3
ENDMDL
MODEL 5
REMARK VINA RESULT:      -7.9      1.672      2.325
REMARK  3 active torsions:
REMARK  status: ('A' for Active; 'I' for Inactive)
REMARK    1  A    between atoms: C1_3  and  O1_4 
REMARK    2  A    between atoms: C1_3  and  C2_6 
REMARK    3  A    between atoms: C7_12  and  C8_13 
ROOT
HETATM    1  C2  UNL     1     -26.342  66.041  24.177  1.00  0.00     0.047 A 
HETATM    2  C3  UNL     1     -27.642  65.874  24.713  1.00  0.00     0.018 A 
HETATM    3  C4  UNL     1     -27.845  65.145  25.906  1.00  0.00     0.003 A 
HETATM    4  C5  UNL     1     -26.758  64.569  26.585  1.00  0.00     0.034 A 
HETATM    5  C6  UNL     1     -25.490  64.749  26.042  1.00  0.00     0.088 A 
HETATM    6  N2  UNL     1     -24.328  64.280  26.519  1.00  0.00    -0.229 NA
HETATM    7  C7  UNL     1     -23.426  64.747  25.616  1.00  0.00     0.163 A 
HETATM    8  N4  UNL     1     -23.976  65.453  24.593  1.00  0.00    -0.228 NA
HETATM    9  C13 UNL     1     -25.284  65.451  24.892  1.00  0.00     0.102 A 
ENDROOT
BRANCH   7  10
HETATM   10  C8  UNL     1     -21.951  64.403  25.678  1.00  0.00     0.183 C 
HETATM   11  C9  UNL     1     -21.170  65.487  24.902  1.00  0.00     0.055 C 
HETATM   12  C10 UNL     1     -21.456  64.322  27.126  1.00  0.00     0.048 C 
HETATM   13  C11 UNL     1     -20.319  63.318  27.089  1.00  0.00     0.030 C 
HETATM   14  C12 UNL     1     -20.494  62.549  25.782  1.00  0.00     0.233 C 
HETATM   15  N3  UNL     1     -21.689  63.068  25.107  1.00  0.00    -0.059 N 
HETATM   16  H15 UNL     1     -22.486  62.419  25.313  1.00  0.00     0.278 HD
HETATM   17  H16 UNL     1     -21.544  63.102  24.070  1.00  0.00     0.278 HD
ENDBRANCH   7  10
BRANCH   1  18
HETATM   18  C1  UNL     1     -26.137  66.805  22.923  1.00  0.00     0.167 C 
HETATM   19  N1  UNL     1     -27.000  66.735  21.959  1.00  0.00    -0.277 NA
HETATM   20  H1  UNL     1     -26.871  67.267  21.069  1.00  0.00     0.189 HD
BRANCH  18  21
HETATM   21  O1  UNL     1     -25.002  67.605  22.781  1.00  0.00    -0.344 OA
HETATM   22  H2  UNL     1     -24.123  67.364  23.222  1.00  0.00     0.219 HD
ENDBRANCH  18  21
ENDBRANCH   1  18
TORSDOF 3
ENDMDL
MODEL 6
REMARK VINA RESULT:      -7.7      2.529      3.395
REMARK  3 active torsions:
REMARK  status: ('A' for Active; 'I' for Inactive)
REMARK    1  A    between atoms: C1_3  and  O1_4 
REMARK    2  A    between atoms: C1_3  and  C2_6 
REMARK    3  A    between atoms: C7_12  and  C8_13 
ROOT
HETATM    1  C2  UNL     1     -24.565  66.357  24.514  1.00  0.00     0.047 A 
HETATM    2  C3  UNL     1     -25.106  67.049  23.403  1.00  0.00     0.018 A 
HETATM    3  C4  UNL     1     -26.499  67.061  23.167  1.00  0.00     0.003 A 
HETATM    4  C5  UNL     1     -27.375  66.385  24.032  1.00  0.00     0.034 A 
HETATM    5  C6  UNL     1     -26.822  65.716  25.118  1.00  0.00     0.088 A 
HETATM    6  N2  UNL     1     -27.471  65.005  26.052  1.00  0.00    -0.229 NA
HETATM    7  C7  UNL     1     -26.462  64.582  26.859  1.00  0.00     0.163 A 
HETATM    8  N4  UNL     1     -25.224  64.971  26.452  1.00  0.00    -0.228 NA
HETATM    9  C13 UNL     1     -25.479  65.698  25.354  1.00  0.00     0.102 A 
ENDROOT
BRANCH   7  10
HETATM   10  C8  UNL     1     -26.688  63.654  28.035  1.00  0.00     0.183 C 
HETATM   11  C9  UNL     1     -28.204  63.380  28.150  1.00  0.00     0.055 C 
HETATM   12  C10 UNL     1     -25.920  62.338  27.864  1.00  0.00     0.048 C 
HETATM   13  C11 UNL     1     -25.618  61.882  29.279  1.00  0.00     0.030 C 
HETATM   14  C12 UNL     1     -25.802  63.118  30.156  1.00  0.00     0.233 C 
HETATM   15  N3  UNL     1     -26.171  64.240  29.286  1.00  0.00    -0.059 N 
HETATM   16  H15 UNL     1     -25.307  64.803  29.097  1.00  0.00     0.278 HD
HETATM   17  H16 UNL     1     -26.876  64.857  29.755  1.00  0.00     0.278 HD
ENDBRANCH   7  10
BRANCH   1  18
HETATM   18  C1  UNL     1     -23.101  66.345  24.753  1.00  0.00     0.167 C 
HETATM   19  N1  UNL     1     -22.413  67.441  24.687  1.00  0.00    -0.277 NA
HETATM   20  H1  UNL     1     -21.381  67.451  24.852  1.00  0.00     0.189 HD
BRANCH  18  21
HETATM   21  O1  UNL     1     -22.461  65.142  25.052  1.00  0.00    -0.344 OA
HETATM   22  H2  UNL     1     -22.607  64.309  24.493  1.00  0.00     0.219 HD
ENDBRANCH  18  21
ENDBRANCH   1  18
TORSDOF 3
ENDMDL
MODEL 7
REMARK VINA RESULT:      -7.6      2.482      3.575
REMARK  3 active torsions:
REMARK  status: ('A' for Active; 'I' for Inactive)
REMARK    1  A    between atoms: C1_3  and  O1_4 
REMARK    2  A    between atoms: C1_3  and  C2_6 
REMARK    3  A    between atoms: C7_12  and  C8_13 
ROOT
HETATM    1  C2  UNL     1     -27.269  65.162  25.762  1.00  0.00     0.047 A 
HETATM    2  C3  UNL     1     -28.394  65.569  25.004  1.00  0.00     0.018 A 
HETATM    3  C4  UNL     1     -28.242  66.401  23.872  1.00  0.00     0.003 A 
HETATM    4  C5  UNL     1     -26.967  66.841  23.476  1.00  0.00     0.034 A 
HETATM    5  C6  UNL     1     -25.877  66.426  24.233  1.00  0.00     0.088 A 
HETATM    6  N2  UNL     1     -24.588  66.735  24.038  1.00  0.00    -0.229 NA
HETATM    7  C7  UNL     1     -23.966  66.070  25.047  1.00  0.00     0.163 A 
HETATM    8  N4  UNL     1     -24.810  65.393  25.870  1.00  0.00    -0.228 NA
HETATM    9  C13 UNL     1     -26.014  65.623  25.326  1.00  0.00     0.102 A 
ENDROOT
BRANCH   7  10
HETATM   10  C8  UNL     1     -22.477  66.179  25.306  1.00  0.00     0.183 C 
HETATM   11  C9  UNL     1     -22.244  66.085  26.831  1.00  0.00     0.055 C 
HETATM   12  C10 UNL     1     -21.701  65.073  24.580  1.00  0.00     0.048 C 
HETATM   13  C11 UNL     1     -20.340  65.681  24.297  1.00  0.00     0.030 C 
HETATM   14  C12 UNL     1     -20.525  67.188  24.446  1.00  0.00     0.233 C 
HETATM   15  N3  UNL     1     -21.932  67.442  24.776  1.00  0.00    -0.059 N 
HETATM   16  H15 UNL     1     -22.428  67.714  23.894  1.00  0.00     0.278 HD
HETATM   17  H16 UNL     1     -22.015  68.229  25.463  1.00  0.00     0.278 HD
ENDBRANCH   7  10
BRANCH   1  18
HETATM   18  C1  UNL     1     -27.438  64.292  26.950  1.00  0.00     0.167 C 
HETATM   19  N1  UNL     1     -26.567  64.310  27.910  1.00  0.00    -0.277 NA
HETATM   20  H1  UNL     1     -26.670  63.703  28.755  1.00  0.00     0.189 HD
BRANCH  18  21
HETATM   21  O1  UNL     1     -28.544  63.445  27.034  1.00  0.00    -0.344 OA
HETATM   22  H2  UNL     1     -29.270  63.586  27.726  1.00  0.00     0.219 HD
ENDBRANCH  18  21
ENDBRANCH   1  18
TORSDOF 3
ENDMDL
MODEL 8
REMARK VINA RESULT:      -7.3      1.506      2.092
REMARK  3 active torsions:
REMARK  status: ('A' for Active; 'I' for Inactive)
REMARK    1  A    between atoms: C1_3  and  O1_4 
REMARK    2  A    between atoms: C1_3  and  C2_6 
REMARK    3  A    between atoms: C7_12  and  C8_13 
ROOT
HETATM    1  C2  UNL     1     -27.254  65.737  24.717  1.00  0.00     0.047 A 
HETATM    2  C3  UNL     1     -28.486  65.135  25.068  1.00  0.00     0.018 A 
HETATM    3  C4  UNL     1     -28.575  64.257  26.172  1.00  0.00     0.003 A 
HETATM    4  C5  UNL     1     -27.438  63.965  26.944  1.00  0.00     0.034 A 
HETATM    5  C6  UNL     1     -26.240  64.571  26.584  1.00  0.00     0.088 A 
HETATM    6  N2  UNL     1     -25.045  64.423  27.173  1.00  0.00    -0.229 NA
HETATM    7  C7  UNL     1     -24.244  65.230  26.429  1.00  0.00     0.163 A 
HETATM    8  N4  UNL     1     -24.878  65.843  25.394  1.00  0.00    -0.228 NA
HETATM    9  C13 UNL     1     -26.144  65.419  25.520  1.00  0.00     0.102 A 
ENDROOT
BRANCH   7  10
HETATM   10  C8  UNL     1     -22.749  65.338  26.657  1.00  0.00     0.183 C 
HETATM   11  C9  UNL     1     -22.102  63.993  26.257  1.00  0.00     0.055 C 
HETATM   12  C10 UNL     1     -22.141  66.485  25.842  1.00  0.00     0.048 C 
HETATM   13  C11 UNL     1     -20.946  66.944  26.656  1.00  0.00     0.030 C 
HETATM   14  C12 UNL     1     -21.169  66.388  28.060  1.00  0.00     0.233 C 
HETATM   15  N3  UNL     1     -22.444  65.661  28.062  1.00  0.00    -0.059 N 
HETATM   16  H15 UNL     1     -23.178  66.295  28.461  1.00  0.00     0.278 HD
HETATM   17  H16 UNL     1     -22.380  64.804  28.662  1.00  0.00     0.278 HD
ENDBRANCH   7  10
BRANCH   1  18
HETATM   18  C1  UNL     1     -27.168  66.655  23.555  1.00  0.00     0.167 C 
HETATM   19  N1  UNL     1     -27.975  66.524  22.550  1.00  0.00    -0.277 NA
HETATM   20  H1  UNL     1     -27.928  67.161  21.723  1.00  0.00     0.189 HD
BRANCH  18  21
HETATM   21  O1  UNL     1     -26.208  67.667  23.546  1.00  0.00    -0.344 OA
HETATM   22  H2  UNL     1     -25.883  68.083  22.682  1.00  0.00     0.219 HD
ENDBRANCH  18  21
ENDBRANCH   1  18
TORSDOF 3
ENDMDL
MODEL 9
REMARK VINA RESULT:      -7.0      2.863      4.286
REMARK  3 active torsions:
REMARK  status: ('A' for Active; 'I' for Inactive)
REMARK    1  A    between atoms: C1_3  and  O1_4 
REMARK    2  A    between atoms: C1_3  and  C2_6 
REMARK    3  A    between atoms: C7_12  and  C8_13 
ROOT
HETATM    1  C2  UNL     1     -27.123  63.521  27.475  1.00  0.00     0.047 A 
HETATM    2  C3  UNL     1     -27.286  62.391  28.313  1.00  0.00     0.018 A 
HETATM    3  C4  UNL     1     -26.168  61.642  28.744  1.00  0.00     0.003 A 
HETATM    4  C5  UNL     1     -24.870  62.007  28.349  1.00  0.00     0.034 A 
HETATM    5  C6  UNL     1     -24.734  63.122  27.530  1.00  0.00     0.088 A 
HETATM    6  N2  UNL     1     -23.598  63.632  27.033  1.00  0.00    -0.229 NA
HETATM    7  C7  UNL     1     -24.038  64.699  26.317  1.00  0.00     0.163 A 
HETATM    8  N4  UNL     1     -25.389  64.854  26.323  1.00  0.00    -0.228 NA
HETATM    9  C13 UNL     1     -25.806  63.850  27.108  1.00  0.00     0.102 A 
ENDROOT
BRANCH   7  10
HETATM   10  C8  UNL     1     -23.115  65.565  25.483  1.00  0.00     0.183 C 
HETATM   11  C9  UNL     1     -23.985  66.461  24.573  1.00  0.00     0.055 C 
HETATM   12  C10 UNL     1     -22.206  66.426  26.366  1.00  0.00     0.048 C 
HETATM   13  C11 UNL     1     -20.946  66.624  25.545  1.00  0.00     0.030 C 
HETATM   14  C12 UNL     1     -20.984  65.543  24.469  1.00  0.00     0.233 C 
HETATM   15  N3  UNL     1     -22.197  64.742  24.674  1.00  0.00    -0.059 N 
HETATM   16  H15 UNL     1     -21.928  63.873  25.194  1.00  0.00     0.278 HD
HETATM   17  H16 UNL     1     -22.618  64.466  23.754  1.00  0.00     0.278 HD
ENDBRANCH   7  10
BRANCH   1  18
HETATM   18  C1  UNL     1     -28.302  64.300  27.023  1.00  0.00     0.167 C 
HETATM   19  N1  UNL     1     -28.635  64.326  25.771  1.00  0.00    -0.277 NA
HETATM   20  H1  UNL     1     -29.462  64.869  25.436  1.00  0.00     0.189 HD
BRANCH  18  21
HETATM   21  O1  UNL     1     -29.057  65.011  27.956  1.00  0.00    -0.344 OA
HETATM   22  H2  UNL     1     -29.582  64.541  28.684  1.00  0.00     0.219 HD
ENDBRANCH  18  21
ENDBRANCH   1  18
TORSDOF 3
ENDMDL
