MODEL 1
REMARK VINA RESULT:     -10.8      0.000      0.000
REMARK  5 active torsions:
REMARK  status: ('A' for Active; 'I' for Inactive)
REMARK    1  A    between atoms: C8_10  and  C9_11 
REMARK    2  A    between atoms: C9_11  and  C10_12 
REMARK    3  A    between atoms: C10_12  and  C11_13 
REMARK    4  A    between atoms: C11_13  and  N2_14 
REMARK    5  A    between atoms: C14_17  and  C15_18 
ROOT
HETATM    1  C11 UNL     1     -20.992  64.865  24.407  1.00  0.00     0.235 C 
ENDROOT
BRANCH   1   2
HETATM    2  C10 UNL     1     -21.560  66.241  24.802  1.00  0.00     0.035 C 
BRANCH   2   3
HETATM    3  C9  UNL     1     -22.617  66.103  25.902  1.00  0.00     0.082 C 
BRANCH   3   4
HETATM    4  C8  UNL     1     -23.991  66.106  25.311  1.00  0.00     0.130 A 
HETATM    5  N1  UNL     1     -24.220  66.721  24.120  1.00  0.00    -0.194 NA
HETATM    6  C7  UNL     1     -25.448  66.710  23.543  1.00  0.00     0.281 A 
HETATM    7  C6  UNL     1     -26.511  66.042  24.176  1.00  0.00     0.063 A 
HETATM    8  O1  UNL     1     -25.617  67.299  22.441  1.00  0.00    -0.265 OA
HETATM    9  C5  UNL     1     -27.802  65.996  23.624  1.00  0.00     0.019 A 
HETATM   10  C23 UNL     1     -26.252  65.397  25.406  1.00  0.00     0.080 A 
HETATM   11  C4  UNL     1     -28.824  65.314  24.290  1.00  0.00     0.002 A 
HETATM   12  C3  UNL     1     -28.568  64.675  25.505  1.00  0.00     0.009 A 
HETATM   13  C2  UNL     1     -27.285  64.709  26.075  1.00  0.00    -0.032 A 
HETATM   14  C1  UNL     1     -27.023  64.015  27.384  1.00  0.00     0.050 C 
HETATM   15  N3  UNL     1     -25.000  65.444  25.936  1.00  0.00    -0.232 NA
ENDBRANCH   3   4
ENDBRANCH   2   3
ENDBRANCH   1   2
BRANCH   1  16
HETATM   16  N2  UNL     1     -19.914  64.967  23.390  1.00  0.00    -0.068 N 
HETATM   17  C12 UNL     1     -18.909  63.905  23.622  1.00  0.00     0.262 C 
HETATM   18  C13 UNL     1     -17.687  64.058  22.751  1.00  0.00     0.008 C 
HETATM   19  C14 UNL     1     -17.351  65.222  22.170  1.00  0.00    -0.049 C 
HETATM   20  C21 UNL     1     -18.256  66.426  22.279  1.00  0.00     0.067 C 
HETATM   21  C22 UNL     1     -19.259  66.292  23.430  1.00  0.00     0.240 C 
HETATM   22  H13 UNL     1     -20.329  64.816  22.439  1.00  0.00     0.280 HD
BRANCH  19  23
HETATM   23  C15 UNL     1     -16.140  65.298  21.314  1.00  0.00    -0.030 A 
HETATM   24  C16 UNL     1     -15.989  64.437  20.210  1.00  0.00     0.015 A 
HETATM   25  C17 UNL     1     -14.852  64.516  19.400  1.00  0.00     0.043 A 
HETATM   26  C18 UNL     1     -13.855  65.452  19.683  1.00  0.00     0.116 A 
HETATM   27  F1  UNL     1     -12.752  65.526  18.897  1.00  0.00    -0.206 F 
HETATM   28  C19 UNL     1     -13.992  66.309  20.777  1.00  0.00     0.043 A 
HETATM   29  C20 UNL     1     -15.128  66.235  21.590  1.00  0.00     0.015 A 
ENDBRANCH  19  23
ENDBRANCH   1  16
TORSDOF 5
ENDMDL
MODEL 2
REMARK VINA RESULT:      -9.7      1.810      2.641
REMARK  5 active torsions:
REMARK  status: ('A' for Active; 'I' for Inactive)
REMARK    1  A    between atoms: C8_10  and  C9_11 
REMARK    2  A    between atoms: C9_11  and  C10_12 
REMARK    3  A    between atoms: C10_12  and  C11_13 
REMARK    4  A    between atoms: C11_13  and  N2_14 
REMARK    5  A    between atoms: C14_17  and  C15_18 
ROOT
HETATM    1  C11 UNL     1     -21.511  63.731  25.422  1.00  0.00     0.235 C 
ENDROOT
BRANCH   1   2
HETATM    2  C10 UNL     1     -22.172  65.119  25.532  1.00  0.00     0.035 C 
BRANCH   2   3
HETATM    3  C9  UNL     1     -23.037  65.214  26.793  1.00  0.00     0.082 C 
BRANCH   3   4
HETATM    4  C8  UNL     1     -24.484  65.049  26.447  1.00  0.00     0.130 A 
HETATM    5  N1  UNL     1     -25.269  64.215  27.179  1.00  0.00    -0.194 NA
HETATM    6  C7  UNL     1     -26.592  64.072  26.911  1.00  0.00     0.281 A 
HETATM    7  C6  UNL     1     -27.175  64.806  25.864  1.00  0.00     0.063 A 
HETATM    8  O1  UNL     1     -27.281  63.282  27.611  1.00  0.00    -0.265 OA
HETATM    9  C5  UNL     1     -28.538  64.700  25.542  1.00  0.00     0.019 A 
HETATM   10  C23 UNL     1     -26.347  65.678  25.121  1.00  0.00     0.080 A 
HETATM   11  C4  UNL     1     -29.071  65.454  24.494  1.00  0.00     0.002 A 
HETATM   12  C3  UNL     1     -28.254  66.318  23.761  1.00  0.00     0.009 A 
HETATM   13  C2  UNL     1     -26.889  66.439  24.066  1.00  0.00    -0.032 A 
HETATM   14  C1  UNL     1     -26.019  67.374  23.269  1.00  0.00     0.050 C 
HETATM   15  N3  UNL     1     -25.028  65.778  25.437  1.00  0.00    -0.232 NA
ENDBRANCH   3   4
ENDBRANCH   2   3
ENDBRANCH   1   2
BRANCH   1  16
HETATM   16  N2  UNL     1     -20.487  63.676  24.347  1.00  0.00    -0.068 N 
HETATM   17  C12 UNL     1     -19.274  62.991  24.850  1.00  0.00     0.262 C 
HETATM   18  C13 UNL     1     -18.120  63.062  23.883  1.00  0.00     0.008 C 
HETATM   19  C14 UNL     1     -18.046  63.984  22.907  1.00  0.00    -0.049 C 
HETATM   20  C21 UNL     1     -19.190  64.940  22.664  1.00  0.00     0.067 C 
HETATM   21  C22 UNL     1     -20.133  65.030  23.869  1.00  0.00     0.240 C 
HETATM   22  H13 UNL     1     -20.865  63.115  23.546  1.00  0.00     0.280 HD
BRANCH  19  23
HETATM   23  C15 UNL     1     -16.885  63.989  21.981  1.00  0.00    -0.030 A 
HETATM   24  C16 UNL     1     -15.696  63.317  22.322  1.00  0.00     0.015 A 
HETATM   25  C17 UNL     1     -14.606  63.317  21.445  1.00  0.00     0.043 A 
HETATM   26  C18 UNL     1     -14.692  63.985  20.222  1.00  0.00     0.116 A 
HETATM   27  F1  UNL     1     -13.635  63.984  19.373  1.00  0.00    -0.206 F 
HETATM   28  C19 UNL     1     -15.866  64.656  19.873  1.00  0.00     0.043 A 
HETATM   29  C20 UNL     1     -16.959  64.659  20.747  1.00  0.00     0.015 A 
ENDBRANCH  19  23
ENDBRANCH   1  16
TORSDOF 5
ENDMDL
MODEL 3
REMARK VINA RESULT:      -9.6      4.005     10.118
REMARK  5 active torsions:
REMARK  status: ('A' for Active; 'I' for Inactive)
REMARK    1  A    between atoms: C8_10  and  C9_11 
REMARK    2  A    between atoms: C9_11  and  C10_12 
REMARK    3  A    between atoms: C10_12  and  C11_13 
REMARK    4  A    between atoms: C11_13  and  N2_14 
REMARK    5  A    between atoms: C14_17  and  C15_18 
ROOT
HETATM    1  C11 UNL     1     -20.704  63.202  26.993  1.00  0.00     0.235 C 
ENDROOT
BRANCH   1   2
HETATM    2  C10 UNL     1     -19.938  62.788  25.722  1.00  0.00     0.035 C 
BRANCH   2   3
HETATM    3  C9  UNL     1     -18.465  63.201  25.809  1.00  0.00     0.082 C 
BRANCH   3   4
HETATM    4  C8  UNL     1     -18.008  63.788  24.511  1.00  0.00     0.130 A 
HETATM    5  N1  UNL     1     -18.563  64.940  24.050  1.00  0.00    -0.194 NA
HETATM    6  C7  UNL     1     -18.144  65.514  22.894  1.00  0.00     0.281 A 
HETATM    7  C6  UNL     1     -17.108  64.918  22.155  1.00  0.00     0.063 A 
HETATM    8  O1  UNL     1     -18.691  66.579  22.501  1.00  0.00    -0.265 OA
HETATM    9  C5  UNL     1     -16.633  65.468  20.952  1.00  0.00     0.019 A 
HETATM   10  C23 UNL     1     -16.534  63.727  22.655  1.00  0.00     0.080 A 
HETATM   11  C4  UNL     1     -15.597  64.840  20.256  1.00  0.00     0.002 A 
HETATM   12  C3  UNL     1     -15.028  63.664  20.750  1.00  0.00     0.009 A 
HETATM   13  C2  UNL     1     -15.487  63.097  21.950  1.00  0.00    -0.032 A 
HETATM   14  C1  UNL     1     -14.865  61.831  22.473  1.00  0.00     0.050 C 
HETATM   15  N3  UNL     1     -16.997  63.199  23.819  1.00  0.00    -0.232 NA
ENDBRANCH   3   4
ENDBRANCH   2   3
ENDBRANCH   1   2
BRANCH   1  16
HETATM   16  N2  UNL     1     -21.923  63.993  26.686  1.00  0.00    -0.068 N 
HETATM   17  C12 UNL     1     -23.124  63.146  26.868  1.00  0.00     0.262 C 
HETATM   18  C13 UNL     1     -24.389  63.816  26.395  1.00  0.00     0.008 C 
HETATM   19  C14 UNL     1     -24.385  64.844  25.528  1.00  0.00    -0.049 C 
HETATM   20  C21 UNL     1     -23.083  65.453  25.064  1.00  0.00     0.067 C 
HETATM   21  C22 UNL     1     -21.890  64.522  25.306  1.00  0.00     0.240 C 
HETATM   22  H13 UNL     1     -21.988  64.793  27.361  1.00  0.00     0.280 HD
BRANCH  19  23
HETATM   23  C15 UNL     1     -25.668  65.465  25.113  1.00  0.00    -0.030 A 
HETATM   24  C16 UNL     1     -26.878  65.084  25.724  1.00  0.00     0.015 A 
HETATM   25  C17 UNL     1     -28.084  65.676  25.337  1.00  0.00     0.043 A 
HETATM   26  C18 UNL     1     -28.096  66.652  24.338  1.00  0.00     0.116 A 
HETATM   27  F1  UNL     1     -29.267  67.225  23.964  1.00  0.00    -0.206 F 
HETATM   28  C19 UNL     1     -26.902  67.037  23.723  1.00  0.00     0.043 A 
HETATM   29  C20 UNL     1     -25.693  66.448  24.107  1.00  0.00     0.015 A 
ENDBRANCH  19  23
ENDBRANCH   1  16
TORSDOF 5
ENDMDL
MODEL 4
REMARK VINA RESULT:      -9.5      4.025     10.721
REMARK  5 active torsions:
REMARK  status: ('A' for Active; 'I' for Inactive)
REMARK    1  A    between atoms: C8_10  and  C9_11 
REMARK    2  A    between atoms: C9_11  and  C10_12 
REMARK    3  A    between atoms: C10_12  and  C11_13 
REMARK    4  A    between atoms: C11_13  and  N2_14 
REMARK    5  A    between atoms: C14_17  and  C15_18 
ROOT
HETATM    1  C11 UNL     1     -19.451  65.518  25.565  1.00  0.00     0.235 C 
ENDROOT
BRANCH   1   2
HETATM    2  C10 UNL     1     -18.858  66.305  24.380  1.00  0.00     0.035 C 
BRANCH   2   3
HETATM    3  C9  UNL     1     -17.326  66.291  24.425  1.00  0.00     0.082 C 
BRANCH   3   4
HETATM    4  C8  UNL     1     -16.769  65.846  23.109  1.00  0.00     0.130 A 
HETATM    5  N1  UNL     1     -17.517  65.073  22.278  1.00  0.00    -0.194 NA
HETATM    6  C7  UNL     1     -17.051  64.684  21.064  1.00  0.00     0.281 A 
HETATM    7  C6  UNL     1     -15.773  65.090  20.644  1.00  0.00     0.063 A 
HETATM    8  O1  UNL     1     -17.776  63.962  20.328  1.00  0.00    -0.265 OA
HETATM    9  C5  UNL     1     -15.239  64.719  19.399  1.00  0.00     0.019 A 
HETATM   10  C23 UNL     1     -15.014  65.904  21.516  1.00  0.00     0.080 A 
HETATM   11  C4  UNL     1     -13.965  65.153  19.025  1.00  0.00     0.002 A 
HETATM   12  C3  UNL     1     -13.215  65.959  19.885  1.00  0.00     0.009 A 
HETATM   13  C2  UNL     1     -13.729  66.342  21.134  1.00  0.00    -0.032 A 
HETATM   14  C1  UNL     1     -12.911  67.211  22.051  1.00  0.00     0.050 C 
HETATM   15  N3  UNL     1     -15.535  66.261  22.720  1.00  0.00    -0.232 NA
ENDBRANCH   3   4
ENDBRANCH   2   3
ENDBRANCH   1   2
BRANCH   1  16
HETATM   16  N2  UNL     1     -20.927  65.656  25.654  1.00  0.00    -0.068 N 
HETATM   17  C12 UNL     1     -21.570  64.373  25.287  1.00  0.00     0.262 C 
HETATM   18  C13 UNL     1     -23.069  64.484  25.169  1.00  0.00     0.008 C 
HETATM   19  C14 UNL     1     -23.697  65.657  24.981  1.00  0.00    -0.049 C 
HETATM   20  C21 UNL     1     -22.923  66.954  24.989  1.00  0.00     0.067 C 
HETATM   21  C22 UNL     1     -21.422  66.733  24.769  1.00  0.00     0.240 C 
HETATM   22  H13 UNL     1     -21.188  65.876  26.645  1.00  0.00     0.280 HD
BRANCH  19  23
HETATM   23  C15 UNL     1     -25.178  65.695  24.885  1.00  0.00    -0.030 A 
HETATM   24  C16 UNL     1     -25.975  65.083  25.872  1.00  0.00     0.015 A 
HETATM   25  C17 UNL     1     -27.370  65.127  25.783  1.00  0.00     0.043 A 
HETATM   26  C18 UNL     1     -27.983  65.779  24.711  1.00  0.00     0.116 A 
HETATM   27  F1  UNL     1     -29.336  65.820  24.627  1.00  0.00    -0.206 F 
HETATM   28  C19 UNL     1     -27.203  66.387  23.725  1.00  0.00     0.043 A 
HETATM   29  C20 UNL     1     -25.808  66.347  23.810  1.00  0.00     0.015 A 
ENDBRANCH  19  23
ENDBRANCH   1  16
TORSDOF 5
ENDMDL
MODEL 5
REMARK VINA RESULT:      -9.5      4.005      9.981
REMARK  5 active torsions:
REMARK  status: ('A' for Active; 'I' for Inactive)
REMARK    1  A    between atoms: C8_10  and  C9_11 
REMARK    2  A    between atoms: C9_11  and  C10_12 
REMARK    3  A    between atoms: C10_12  and  C11_13 
REMARK    4  A    between atoms: C11_13  and  N2_14 
REMARK    5  A    between atoms: C14_17  and  C15_18 
ROOT
HETATM    1  C11 UNL     1     -20.722  65.728  26.433  1.00  0.00     0.235 C 
ENDROOT
BRANCH   1   2
HETATM    2  C10 UNL     1     -19.939  64.455  26.809  1.00  0.00     0.035 C 
BRANCH   2   3
HETATM    3  C9  UNL     1     -20.088  63.381  25.727  1.00  0.00     0.082 C 
BRANCH   3   4
HETATM    4  C8  UNL     1     -19.368  63.791  24.480  1.00  0.00     0.130 A 
HETATM    5  N1  UNL     1     -19.909  63.523  23.262  1.00  0.00    -0.194 NA
HETATM    6  C7  UNL     1     -19.297  63.914  22.115  1.00  0.00     0.281 A 
HETATM    7  C6  UNL     1     -18.083  64.620  22.178  1.00  0.00     0.063 A 
HETATM    8  O1  UNL     1     -19.830  63.639  21.007  1.00  0.00    -0.265 OA
HETATM    9  C5  UNL     1     -17.406  65.050  21.025  1.00  0.00     0.019 A 
HETATM   10  C23 UNL     1     -17.542  64.901  23.453  1.00  0.00     0.080 A 
HETATM   11  C4  UNL     1     -16.204  65.753  21.140  1.00  0.00     0.002 A 
HETATM   12  C3  UNL     1     -15.669  66.033  22.400  1.00  0.00     0.009 A 
HETATM   13  C2  UNL     1     -16.329  65.612  23.565  1.00  0.00    -0.032 A 
HETATM   14  C1  UNL     1     -15.744  65.920  24.917  1.00  0.00     0.050 C 
HETATM   15  N3  UNL     1     -18.202  64.482  24.566  1.00  0.00    -0.232 NA
ENDBRANCH   3   4
ENDBRANCH   2   3
ENDBRANCH   1   2
BRANCH   1  16
HETATM   16  N2  UNL     1     -22.104  65.429  25.979  1.00  0.00    -0.068 N 
HETATM   17  C12 UNL     1     -22.575  66.505  25.077  1.00  0.00     0.262 C 
HETATM   18  C13 UNL     1     -24.035  66.374  24.725  1.00  0.00     0.008 C 
HETATM   19  C14 UNL     1     -24.898  65.654  25.462  1.00  0.00    -0.049 C 
HETATM   20  C21 UNL     1     -24.413  64.843  26.641  1.00  0.00     0.067 C 
HETATM   21  C22 UNL     1     -23.031  65.296  27.124  1.00  0.00     0.240 C 
HETATM   22  H13 UNL     1     -22.096  64.533  25.435  1.00  0.00     0.280 HD
BRANCH  19  23
HETATM   23  C15 UNL     1     -26.321  65.558  25.050  1.00  0.00    -0.030 A 
HETATM   24  C16 UNL     1     -27.260  64.900  25.869  1.00  0.00     0.015 A 
HETATM   25  C17 UNL     1     -28.601  64.817  25.483  1.00  0.00     0.043 A 
HETATM   26  C18 UNL     1     -29.019  65.387  24.278  1.00  0.00     0.116 A 
HETATM   27  F1  UNL     1     -30.321  65.305  23.905  1.00  0.00    -0.206 F 
HETATM   28  C19 UNL     1     -28.098  66.040  23.457  1.00  0.00     0.043 A 
HETATM   29  C20 UNL     1     -26.755  66.127  23.839  1.00  0.00     0.015 A 
ENDBRANCH  19  23
ENDBRANCH   1  16
TORSDOF 5
ENDMDL
MODEL 6
REMARK VINA RESULT:      -9.5      4.453      9.232
REMARK  5 active torsions:
REMARK  status: ('A' for Active; 'I' for Inactive)
REMARK    1  A    between atoms: C8_10  and  C9_11 
REMARK    2  A    between atoms: C9_11  and  C10_12 
REMARK    3  A    between atoms: C10_12  and  C11_13 
REMARK    4  A    between atoms: C11_13  and  N2_14 
REMARK    5  A    between atoms: C14_17  and  C15_18 
ROOT
HETATM    1  C11 UNL     1     -20.764  66.385  26.787  1.00  0.00     0.235 C 
ENDROOT
BRANCH   1   2
HETATM    2  C10 UNL     1     -20.383  65.110  27.564  1.00  0.00     0.035 C 
BRANCH   2   3
HETATM    3  C9  UNL     1     -19.034  64.561  27.088  1.00  0.00     0.082 C 
BRANCH   3   4
HETATM    4  C8  UNL     1     -18.984  64.521  25.593  1.00  0.00     0.130 A 
HETATM    5  N1  UNL     1     -18.011  65.195  24.925  1.00  0.00    -0.194 NA
HETATM    6  C7  UNL     1     -17.919  65.149  23.572  1.00  0.00     0.281 A 
HETATM    7  C6  UNL     1     -18.838  64.381  22.836  1.00  0.00     0.063 A 
HETATM    8  O1  UNL     1     -17.005  65.795  22.993  1.00  0.00    -0.265 OA
HETATM    9  C5  UNL     1     -18.791  64.295  21.435  1.00  0.00     0.019 A 
HETATM   10  C23 UNL     1     -19.836  63.676  23.548  1.00  0.00     0.080 A 
HETATM   11  C4  UNL     1     -19.725  63.514  20.750  1.00  0.00     0.002 A 
HETATM   12  C3  UNL     1     -20.710  62.815  21.452  1.00  0.00     0.009 A 
HETATM   13  C2  UNL     1     -20.776  62.888  22.852  1.00  0.00    -0.032 A 
HETATM   14  C1  UNL     1     -21.841  62.129  23.597  1.00  0.00     0.050 C 
HETATM   15  N3  UNL     1     -19.877  63.763  24.904  1.00  0.00    -0.232 NA
ENDBRANCH   3   4
ENDBRANCH   2   3
ENDBRANCH   1   2
BRANCH   1  16
HETATM   16  N2  UNL     1     -22.208  66.428  26.443  1.00  0.00    -0.068 N 
HETATM   17  C12 UNL     1     -22.896  65.257  27.034  1.00  0.00     0.262 C 
HETATM   18  C13 UNL     1     -24.325  65.125  26.572  1.00  0.00     0.008 C 
HETATM   19  C14 UNL     1     -24.784  65.712  25.454  1.00  0.00    -0.049 C 
HETATM   20  C21 UNL     1     -23.898  66.635  24.650  1.00  0.00     0.067 C 
HETATM   21  C22 UNL     1     -22.413  66.441  24.979  1.00  0.00     0.240 C 
HETATM   22  H13 UNL     1     -22.631  67.293  26.859  1.00  0.00     0.280 HD
BRANCH  19  23
HETATM   23  C15 UNL     1     -26.208  65.550  25.065  1.00  0.00    -0.030 A 
HETATM   24  C16 UNL     1     -26.668  66.027  23.822  1.00  0.00     0.015 A 
HETATM   25  C17 UNL     1     -28.007  65.866  23.454  1.00  0.00     0.043 A 
HETATM   26  C18 UNL     1     -28.900  65.232  24.320  1.00  0.00     0.116 A 
HETATM   27  F1  UNL     1     -30.199  65.078  23.961  1.00  0.00    -0.206 F 
HETATM   28  C19 UNL     1     -28.456  64.757  25.556  1.00  0.00     0.043 A 
HETATM   29  C20 UNL     1     -27.117  64.914  25.929  1.00  0.00     0.015 A 
ENDBRANCH  19  23
ENDBRANCH   1  16
TORSDOF 5
ENDMDL
MODEL 7
REMARK VINA RESULT:      -9.3      4.403     10.400
REMARK  5 active torsions:
REMARK  status: ('A' for Active; 'I' for Inactive)
REMARK    1  A    between atoms: C8_10  and  C9_11 
REMARK    2  A    between atoms: C9_11  and  C10_12 
REMARK    3  A    between atoms: C10_12  and  C11_13 
REMARK    4  A    between atoms: C11_13  and  N2_14 
REMARK    5  A    between atoms: C14_17  and  C15_18 
ROOT
HETATM    1  C11 UNL     1     -20.413  65.457  26.378  1.00  0.00     0.235 C 
ENDROOT
BRANCH   1   2
HETATM    2  C10 UNL     1     -19.575  66.125  25.271  1.00  0.00     0.035 C 
BRANCH   2   3
HETATM    3  C9  UNL     1     -18.102  66.222  25.681  1.00  0.00     0.082 C 
BRANCH   3   4
HETATM    4  C8  UNL     1     -17.214  66.058  24.487  1.00  0.00     0.130 A 
HETATM    5  N1  UNL     1     -15.907  66.424  24.554  1.00  0.00    -0.194 NA
HETATM    6  C7  UNL     1     -15.070  66.254  23.499  1.00  0.00     0.281 A 
HETATM    7  C6  UNL     1     -15.553  65.680  22.311  1.00  0.00     0.063 A 
HETATM    8  O1  UNL     1     -13.866  66.614  23.603  1.00  0.00    -0.265 OA
HETATM    9  C5  UNL     1     -14.733  65.480  21.188  1.00  0.00     0.019 A 
HETATM   10  C23 UNL     1     -16.912  65.295  22.263  1.00  0.00     0.080 A 
HETATM   11  C4  UNL     1     -15.260  64.900  20.031  1.00  0.00     0.002 A 
HETATM   12  C3  UNL     1     -16.602  64.517  19.983  1.00  0.00     0.009 A 
HETATM   13  C2  UNL     1     -17.440  64.709  21.094  1.00  0.00    -0.032 A 
HETATM   14  C1  UNL     1     -18.884  64.290  21.030  1.00  0.00     0.050 C 
HETATM   15  N3  UNL     1     -17.702  65.491  23.353  1.00  0.00    -0.232 NA
ENDBRANCH   3   4
ENDBRANCH   2   3
ENDBRANCH   1   2
BRANCH   1  16
HETATM   16  N2  UNL     1     -21.870  65.676  26.194  1.00  0.00    -0.068 N 
HETATM   17  C12 UNL     1     -22.589  64.390  26.344  1.00  0.00     0.262 C 
HETATM   18  C13 UNL     1     -24.050  64.492  25.985  1.00  0.00     0.008 C 
HETATM   19  C14 UNL     1     -24.541  65.480  25.218  1.00  0.00    -0.049 C 
HETATM   20  C21 UNL     1     -23.653  66.613  24.761  1.00  0.00     0.067 C 
HETATM   21  C22 UNL     1     -22.165  66.261  24.869  1.00  0.00     0.240 C 
HETATM   22  H13 UNL     1     -22.213  66.326  26.942  1.00  0.00     0.280 HD
BRANCH  19  23
HETATM   23  C15 UNL     1     -25.994  65.527  24.913  1.00  0.00    -0.030 A 
HETATM   24  C16 UNL     1     -26.934  65.026  25.834  1.00  0.00     0.015 A 
HETATM   25  C17 UNL     1     -28.302  65.078  25.548  1.00  0.00     0.043 A 
HETATM   26  C18 UNL     1     -28.745  65.628  24.343  1.00  0.00     0.116 A 
HETATM   27  F1  UNL     1     -30.072  65.677  24.068  1.00  0.00    -0.206 F 
HETATM   28  C19 UNL     1     -27.822  66.126  23.421  1.00  0.00     0.043 A 
HETATM   29  C20 UNL     1     -26.452  66.077  23.702  1.00  0.00     0.015 A 
ENDBRANCH  19  23
ENDBRANCH   1  16
TORSDOF 5
ENDMDL
MODEL 8
REMARK VINA RESULT:      -9.0      2.096      3.072
REMARK  5 active torsions:
REMARK  status: ('A' for Active; 'I' for Inactive)
REMARK    1  A    between atoms: C8_10  and  C9_11 
REMARK    2  A    between atoms: C9_11  and  C10_12 
REMARK    3  A    between atoms: C10_12  and  C11_13 
REMARK    4  A    between atoms: C11_13  and  N2_14 
REMARK    5  A    between atoms: C14_17  and  C15_18 
ROOT
HETATM    1  C11 UNL     1     -20.894  64.041  24.286  1.00  0.00     0.235 C 
ENDROOT
BRANCH   1   2
HETATM    2  C10 UNL     1     -20.529  63.033  25.393  1.00  0.00     0.035 C 
BRANCH   2   3
HETATM    3  C9  UNL     1     -21.043  63.508  26.756  1.00  0.00     0.082 C 
BRANCH   3   4
HETATM    4  C8  UNL     1     -22.539  63.526  26.775  1.00  0.00     0.130 A 
HETATM    5  N1  UNL     1     -23.223  62.624  27.527  1.00  0.00    -0.194 NA
HETATM    6  C7  UNL     1     -24.579  62.639  27.591  1.00  0.00     0.281 A 
HETATM    7  C6  UNL     1     -25.300  63.610  26.875  1.00  0.00     0.063 A 
HETATM    8  O1  UNL     1     -25.172  61.779  28.297  1.00  0.00    -0.265 OA
HETATM    9  C5  UNL     1     -26.703  63.674  26.904  1.00  0.00     0.019 A 
HETATM   10  C23 UNL     1     -24.572  64.547  26.108  1.00  0.00     0.080 A 
HETATM   11  C4  UNL     1     -27.374  64.661  26.179  1.00  0.00     0.002 A 
HETATM   12  C3  UNL     1     -26.656  65.590  25.422  1.00  0.00     0.009 A 
HETATM   13  C2  UNL     1     -25.253  65.544  25.378  1.00  0.00    -0.032 A 
HETATM   14  C1  UNL     1     -24.491  66.550  24.560  1.00  0.00     0.050 C 
HETATM   15  N3  UNL     1     -23.214  64.481  26.083  1.00  0.00    -0.232 NA
ENDBRANCH   3   4
ENDBRANCH   2   3
ENDBRANCH   1   2
BRANCH   1  16
HETATM   16  N2  UNL     1     -19.801  64.215  23.296  1.00  0.00    -0.068 N 
HETATM   17  C12 UNL     1     -18.628  63.408  23.703  1.00  0.00     0.262 C 
HETATM   18  C13 UNL     1     -17.410  63.677  22.856  1.00  0.00     0.008 C 
HETATM   19  C14 UNL     1     -17.266  64.798  22.127  1.00  0.00    -0.049 C 
HETATM   20  C21 UNL     1     -18.387  65.808  22.041  1.00  0.00     0.067 C 
HETATM   21  C22 UNL     1     -19.409  65.635  23.170  1.00  0.00     0.240 C 
HETATM   22  H13 UNL     1     -20.126  63.862  22.364  1.00  0.00     0.280 HD
BRANCH  19  23
HETATM   23  C15 UNL     1     -16.046  64.994  21.305  1.00  0.00    -0.030 A 
HETATM   24  C16 UNL     1     -15.201  66.097  21.532  1.00  0.00     0.015 A 
HETATM   25  C17 UNL     1     -14.048  66.275  20.761  1.00  0.00     0.043 A 
HETATM   26  C18 UNL     1     -13.727  65.358  19.758  1.00  0.00     0.116 A 
HETATM   27  F1  UNL     1     -12.608  65.532  19.012  1.00  0.00    -0.206 F 
HETATM   28  C19 UNL     1     -14.559  64.261  19.523  1.00  0.00     0.043 A 
HETATM   29  C20 UNL     1     -15.713  64.077  20.291  1.00  0.00     0.015 A 
ENDBRANCH  19  23
ENDBRANCH   1  16
TORSDOF 5
ENDMDL
MODEL 9
REMARK VINA RESULT:      -9.0      4.332      8.653
REMARK  5 active torsions:
REMARK  status: ('A' for Active; 'I' for Inactive)
REMARK    1  A    between atoms: C8_10  and  C9_11 
REMARK    2  A    between atoms: C9_11  and  C10_12 
REMARK    3  A    between atoms: C10_12  and  C11_13 
REMARK    4  A    between atoms: C11_13  and  N2_14 
REMARK    5  A    between atoms: C14_17  and  C15_18 
ROOT
HETATM    1  C11 UNL     1     -18.643  67.460  26.248  1.00  0.00     0.235 C 
ENDROOT
BRANCH   1   2
HETATM    2  C10 UNL     1     -17.810  66.213  26.604  1.00  0.00     0.035 C 
BRANCH   2   3
HETATM    3  C9  UNL     1     -16.852  65.850  25.465  1.00  0.00     0.082 C 
BRANCH   3   4
HETATM    4  C8  UNL     1     -17.610  65.288  24.303  1.00  0.00     0.130 A 
HETATM    5  N1  UNL     1     -17.279  65.648  23.035  1.00  0.00    -0.194 NA
HETATM    6  C7  UNL     1     -17.926  65.128  21.960  1.00  0.00     0.281 A 
HETATM    7  C6  UNL     1     -18.953  64.188  22.152  1.00  0.00     0.063 A 
HETATM    8  O1  UNL     1     -17.590  65.495  20.802  1.00  0.00    -0.265 OA
HETATM    9  C5  UNL     1     -19.655  63.616  21.079  1.00  0.00     0.019 A 
HETATM   10  C23 UNL     1     -19.275  63.816  23.477  1.00  0.00     0.080 A 
HETATM   11  C4  UNL     1     -20.666  62.683  21.321  1.00  0.00     0.002 A 
HETATM   12  C3  UNL     1     -20.984  62.313  22.630  1.00  0.00     0.009 A 
HETATM   13  C2  UNL     1     -20.295  62.872  23.718  1.00  0.00    -0.032 A 
HETATM   14  C1  UNL     1     -20.646  62.464  25.123  1.00  0.00     0.050 C 
HETATM   15  N3  UNL     1     -18.592  64.373  24.513  1.00  0.00    -0.232 NA
ENDBRANCH   3   4
ENDBRANCH   2   3
ENDBRANCH   1   2
BRANCH   1  16
HETATM   16  N2  UNL     1     -20.104  67.199  26.304  1.00  0.00    -0.068 N 
HETATM   17  C12 UNL     1     -20.362  65.986  27.113  1.00  0.00     0.262 C 
HETATM   18  C13 UNL     1     -21.803  65.545  27.061  1.00  0.00     0.008 C 
HETATM   19  C14 UNL     1     -22.643  65.923  26.082  1.00  0.00    -0.049 C 
HETATM   20  C21 UNL     1     -22.200  66.909  25.027  1.00  0.00     0.067 C 
HETATM   21  C22 UNL     1     -20.674  67.028  24.951  1.00  0.00     0.240 C 
HETATM   22  H13 UNL     1     -20.575  68.008  26.778  1.00  0.00     0.280 HD
BRANCH  19  23
HETATM   23  C15 UNL     1     -24.054  65.461  26.099  1.00  0.00    -0.030 A 
HETATM   24  C16 UNL     1     -24.480  64.498  27.035  1.00  0.00     0.015 A 
HETATM   25  C17 UNL     1     -25.811  64.071  27.055  1.00  0.00     0.043 A 
HETATM   26  C18 UNL     1     -26.729  64.598  26.144  1.00  0.00     0.116 A 
HETATM   27  F1  UNL     1     -28.020  64.182  26.164  1.00  0.00    -0.206 F 
HETATM   28  C19 UNL     1     -26.318  65.552  25.210  1.00  0.00     0.043 A 
HETATM   29  C20 UNL     1     -24.988  65.984  25.186  1.00  0.00     0.015 A 
ENDBRANCH  19  23
ENDBRANCH   1  16
TORSDOF 5
ENDMDL
