MODEL 1
REMARK VINA RESULT:      -8.9      0.000      0.000
REMARK  5 active torsions:
REMARK  status: ('A' for Active; 'I' for Inactive)
REMARK    1  A    between atoms: C1_3  and  O1_4 
REMARK    2  A    between atoms: C1_3  and  C2_6 
REMARK    3  A    between atoms: C7_12  and  C8_13 
REMARK    4  A    between atoms: N3_16  and  C11_18 
REMARK    5  A    between atoms: C11_18  and  C12_19 
ROOT
HETATM    1  C2  UNL     1     -27.055  66.121  23.858  1.00  0.00     0.047 A 
HETATM    2  C3  UNL     1     -28.423  65.774  23.756  1.00  0.00     0.018 A 
HETATM    3  C4  UNL     1     -29.043  64.975  24.742  1.00  0.00     0.003 A 
HETATM    4  C5  UNL     1     -28.311  64.509  25.846  1.00  0.00     0.034 A 
HETATM    5  C6  UNL     1     -26.969  64.863  25.929  1.00  0.00     0.088 A 
HETATM    6  N2  UNL     1     -26.093  64.527  26.887  1.00  0.00    -0.231 NA
HETATM    7  C7  UNL     1     -24.950  65.132  26.472  1.00  0.00     0.131 A 
HETATM    8  N4  UNL     1     -25.075  65.816  25.306  1.00  0.00    -0.230 NA
HETATM    9  C16 UNL     1     -26.364  65.634  24.982  1.00  0.00     0.102 A 
ENDROOT
BRANCH   7  10
HETATM   10  C8  UNL     1     -23.652  65.010  27.233  1.00  0.00     0.060 C 
HETATM   11  C9  UNL     1     -23.384  63.564  27.677  1.00  0.00     0.040 C 
HETATM   12  C10 UNL     1     -22.862  62.692  26.527  1.00  0.00     0.235 C 
HETATM   13  N3  UNL     1     -21.646  63.272  25.912  1.00  0.00    -0.071 N 
HETATM   14  H11 UNL     1     -20.918  63.353  26.661  1.00  0.00     0.279 HD
HETATM   15  C14 UNL     1     -21.937  64.619  25.365  1.00  0.00     0.235 C 
HETATM   16  C15 UNL     1     -22.454  65.578  26.452  1.00  0.00     0.040 C 
BRANCH  13  17
HETATM   17  C11 UNL     1     -21.156  62.349  24.855  1.00  0.00     0.234 C 
BRANCH  17  18
HETATM   18  C12 UNL     1     -21.894  62.469  23.503  1.00  0.00     0.023 C 
HETATM   19  C13 UNL     1     -20.961  62.427  22.295  1.00  0.00     0.007 C 
ENDBRANCH  17  18
ENDBRANCH  13  17
ENDBRANCH   7  10
BRANCH   1  20
HETATM   20  C1  UNL     1     -26.407  66.957  22.818  1.00  0.00     0.167 C 
HETATM   21  N1  UNL     1     -25.558  67.880  23.147  1.00  0.00    -0.277 NA
HETATM   22  H1  UNL     1     -25.093  68.477  22.428  1.00  0.00     0.189 HD
BRANCH  20  23
HETATM   23  O1  UNL     1     -26.717  66.747  21.474  1.00  0.00    -0.344 OA
HETATM   24  H2  UNL     1     -27.505  67.204  21.032  1.00  0.00     0.219 HD
ENDBRANCH  20  23
ENDBRANCH   1  20
TORSDOF 5
ENDMDL
MODEL 2
REMARK VINA RESULT:      -8.3      2.873      4.877
REMARK  5 active torsions:
REMARK  status: ('A' for Active; 'I' for Inactive)
REMARK    1  A    between atoms: C1_3  and  O1_4 
REMARK    2  A    between atoms: C1_3  and  C2_6 
REMARK    3  A    between atoms: C7_12  and  C8_13 
REMARK    4  A    between atoms: N3_16  and  C11_18 
REMARK    5  A    between atoms: C11_18  and  C12_19 
ROOT
HETATM    1  C2  UNL     1     -26.256  66.286  24.476  1.00  0.00     0.047 A 
HETATM    2  C3  UNL     1     -27.557  66.671  24.071  1.00  0.00     0.018 A 
HETATM    3  C4  UNL     1     -28.701  66.105  24.676  1.00  0.00     0.003 A 
HETATM    4  C5  UNL     1     -28.569  65.145  25.693  1.00  0.00     0.034 A 
HETATM    5  C6  UNL     1     -27.282  64.783  26.077  1.00  0.00     0.088 A 
HETATM    6  N2  UNL     1     -26.931  63.892  27.015  1.00  0.00    -0.231 NA
HETATM    7  C7  UNL     1     -25.574  63.933  26.973  1.00  0.00     0.131 A 
HETATM    8  N4  UNL     1     -25.073  64.796  26.052  1.00  0.00    -0.230 NA
HETATM    9  C16 UNL     1     -26.174  65.325  25.499  1.00  0.00     0.102 A 
ENDROOT
BRANCH   7  10
HETATM   10  C8  UNL     1     -24.713  63.058  27.851  1.00  0.00     0.060 C 
HETATM   11  C9  UNL     1     -24.055  63.858  28.985  1.00  0.00     0.040 C 
HETATM   12  C10 UNL     1     -25.033  64.150  30.131  1.00  0.00     0.235 C 
HETATM   13  N3  UNL     1     -25.634  62.906  30.665  1.00  0.00    -0.071 N 
HETATM   14  H11 UNL     1     -24.854  62.296  31.005  1.00  0.00     0.279 HD
HETATM   15  C14 UNL     1     -26.382  62.197  29.600  1.00  0.00     0.235 C 
HETATM   16  C15 UNL     1     -25.479  61.844  28.405  1.00  0.00     0.040 C 
BRANCH  13  17
HETATM   17  C11 UNL     1     -26.515  63.252  31.811  1.00  0.00     0.234 C 
BRANCH  17  18
HETATM   18  C12 UNL     1     -26.682  64.768  32.060  1.00  0.00     0.023 C 
HETATM   19  C13 UNL     1     -28.110  65.172  32.420  1.00  0.00     0.007 C 
ENDBRANCH  17  18
ENDBRANCH  13  17
ENDBRANCH   7  10
BRANCH   1  20
HETATM   20  C1  UNL     1     -25.059  66.882  23.835  1.00  0.00     0.167 C 
HETATM   21  N1  UNL     1     -23.905  66.839  24.424  1.00  0.00    -0.277 NA
HETATM   22  H1  UNL     1     -23.051  67.252  23.988  1.00  0.00     0.189 HD
BRANCH  20  23
HETATM   23  O1  UNL     1     -25.177  67.495  22.587  1.00  0.00    -0.344 OA
HETATM   24  H2  UNL     1     -25.991  67.353  22.001  1.00  0.00     0.219 HD
ENDBRANCH  20  23
ENDBRANCH   1  20
TORSDOF 5
ENDMDL
MODEL 3
REMARK VINA RESULT:      -8.1      1.798      2.908
REMARK  5 active torsions:
REMARK  status: ('A' for Active; 'I' for Inactive)
REMARK    1  A    between atoms: C1_3  and  O1_4 
REMARK    2  A    between atoms: C1_3  and  C2_6 
REMARK    3  A    between atoms: C7_12  and  C8_13 
REMARK    4  A    between atoms: N3_16  and  C11_18 
REMARK    5  A    between atoms: C11_18  and  C12_19 
ROOT
HETATM    1  C2  UNL     1     -26.793  66.362  24.004  1.00  0.00     0.047 A 
HETATM    2  C3  UNL     1     -28.196  66.423  24.179  1.00  0.00     0.018 A 
HETATM    3  C4  UNL     1     -28.821  65.765  25.262  1.00  0.00     0.003 A 
HETATM    4  C5  UNL     1     -28.058  65.036  26.188  1.00  0.00     0.034 A 
HETATM    5  C6  UNL     1     -26.681  64.991  25.999  1.00  0.00     0.088 A 
HETATM    6  N2  UNL     1     -25.774  64.355  26.755  1.00  0.00    -0.231 NA
HETATM    7  C7  UNL     1     -24.606  64.640  26.123  1.00  0.00     0.131 A 
HETATM    8  N4  UNL     1     -24.748  65.411  25.014  1.00  0.00    -0.230 NA
HETATM    9  C16 UNL     1     -26.071  65.623  24.957  1.00  0.00     0.102 A 
ENDROOT
BRANCH   7  10
HETATM   10  C8  UNL     1     -23.279  64.104  26.602  1.00  0.00     0.060 C 
HETATM   11  C9  UNL     1     -22.318  63.833  25.434  1.00  0.00     0.040 C 
HETATM   12  C10 UNL     1     -21.674  65.121  24.904  1.00  0.00     0.235 C 
HETATM   13  N3  UNL     1     -20.977  65.865  25.978  1.00  0.00    -0.071 N 
HETATM   14  H11 UNL     1     -20.242  65.235  26.377  1.00  0.00     0.279 HD
HETATM   15  C14 UNL     1     -21.932  66.242  27.047  1.00  0.00     0.235 C 
HETATM   16  C15 UNL     1     -22.622  65.010  27.658  1.00  0.00     0.040 C 
BRANCH  13  17
HETATM   17  C11 UNL     1     -20.322  67.061  25.386  1.00  0.00     0.234 C 
BRANCH  17  18
HETATM   18  C12 UNL     1     -20.822  68.412  25.945  1.00  0.00     0.023 C 
HETATM   19  C13 UNL     1     -19.706  69.433  26.157  1.00  0.00     0.007 C 
ENDBRANCH  17  18
ENDBRANCH  13  17
ENDBRANCH   7  10
BRANCH   1  20
HETATM   20  C1  UNL     1     -26.143  67.052  22.863  1.00  0.00     0.167 C 
HETATM   21  N1  UNL     1     -26.618  66.934  21.663  1.00  0.00    -0.277 NA
HETATM   22  H1  UNL     1     -26.173  67.413  20.849  1.00  0.00     0.189 HD
BRANCH  20  23
HETATM   23  O1  UNL     1     -25.010  67.835  23.087  1.00  0.00    -0.344 OA
HETATM   24  H2  UNL     1     -24.322  67.586  23.787  1.00  0.00     0.219 HD
ENDBRANCH  20  23
ENDBRANCH   1  20
TORSDOF 5
ENDMDL
MODEL 4
REMARK VINA RESULT:      -7.8      2.701      4.024
REMARK  5 active torsions:
REMARK  status: ('A' for Active; 'I' for Inactive)
REMARK    1  A    between atoms: C1_3  and  O1_4 
REMARK    2  A    between atoms: C1_3  and  C2_6 
REMARK    3  A    between atoms: C7_12  and  C8_13 
REMARK    4  A    between atoms: N3_16  and  C11_18 
REMARK    5  A    between atoms: C11_18  and  C12_19 
ROOT
HETATM    1  C2  UNL     1     -26.986  66.204  24.252  1.00  0.00     0.047 A 
HETATM    2  C3  UNL     1     -26.158  67.034  23.459  1.00  0.00     0.018 A 
HETATM    3  C4  UNL     1     -24.765  67.101  23.690  1.00  0.00     0.003 A 
HETATM    4  C5  UNL     1     -24.175  66.343  24.714  1.00  0.00     0.034 A 
HETATM    5  C6  UNL     1     -25.007  65.533  25.480  1.00  0.00     0.088 A 
HETATM    6  N2  UNL     1     -24.656  64.738  26.502  1.00  0.00    -0.231 NA
HETATM    7  C7  UNL     1     -25.842  64.191  26.875  1.00  0.00     0.131 A 
HETATM    8  N4  UNL     1     -26.904  64.615  26.143  1.00  0.00    -0.230 NA
HETATM    9  C16 UNL     1     -26.350  65.463  25.264  1.00  0.00     0.102 A 
ENDROOT
BRANCH   7  10
HETATM   10  C8  UNL     1     -25.957  63.230  28.033  1.00  0.00     0.060 C 
HETATM   11  C9  UNL     1     -24.848  62.167  28.005  1.00  0.00     0.040 C 
HETATM   12  C10 UNL     1     -23.508  62.715  28.515  1.00  0.00     0.235 C 
HETATM   13  N3  UNL     1     -23.635  63.287  29.876  1.00  0.00    -0.071 N 
HETATM   14  H11 UNL     1     -23.976  62.526  30.509  1.00  0.00     0.279 HD
HETATM   15  C14 UNL     1     -24.611  64.402  29.876  1.00  0.00     0.235 C 
HETATM   16  C15 UNL     1     -25.999  63.947  29.394  1.00  0.00     0.040 C 
BRANCH  13  17
HETATM   17  C11 UNL     1     -22.294  63.736  30.334  1.00  0.00     0.234 C 
BRANCH  17  18
HETATM   18  C12 UNL     1     -21.119  62.864  29.837  1.00  0.00     0.023 C 
HETATM   19  C13 UNL     1     -20.463  62.040  30.943  1.00  0.00     0.007 C 
ENDBRANCH  17  18
ENDBRANCH  13  17
ENDBRANCH   7  10
BRANCH   1  20
HETATM   20  C1  UNL     1     -28.447  66.140  24.008  1.00  0.00     0.167 C 
HETATM   21  N1  UNL     1     -29.142  67.226  23.874  1.00  0.00    -0.277 NA
HETATM   22  H1  UNL     1     -30.172  67.199  23.701  1.00  0.00     0.189 HD
BRANCH  20  23
HETATM   23  O1  UNL     1     -29.077  64.898  23.923  1.00  0.00    -0.344 OA
HETATM   24  H2  UNL     1     -30.080  64.818  23.808  1.00  0.00     0.219 HD
ENDBRANCH  20  23
ENDBRANCH   1  20
TORSDOF 5
ENDMDL
MODEL 5
REMARK VINA RESULT:      -7.6      3.483      5.815
REMARK  5 active torsions:
REMARK  status: ('A' for Active; 'I' for Inactive)
REMARK    1  A    between atoms: C1_3  and  O1_4 
REMARK    2  A    between atoms: C1_3  and  C2_6 
REMARK    3  A    between atoms: C7_12  and  C8_13 
REMARK    4  A    between atoms: N3_16  and  C11_18 
REMARK    5  A    between atoms: C11_18  and  C12_19 
ROOT
HETATM    1  C2  UNL     1     -26.906  65.983  24.596  1.00  0.00     0.047 A 
HETATM    2  C3  UNL     1     -25.907  66.785  23.995  1.00  0.00     0.018 A 
HETATM    3  C4  UNL     1     -24.552  66.662  24.375  1.00  0.00     0.003 A 
HETATM    4  C5  UNL     1     -24.170  65.738  25.362  1.00  0.00     0.034 A 
HETATM    5  C6  UNL     1     -25.166  64.959  25.939  1.00  0.00     0.088 A 
HETATM    6  N2  UNL     1     -25.024  64.026  26.893  1.00  0.00    -0.231 NA
HETATM    7  C7  UNL     1     -26.297  63.590  27.075  1.00  0.00     0.131 A 
HETATM    8  N4  UNL     1     -27.216  64.210  26.290  1.00  0.00    -0.230 NA
HETATM    9  C16 UNL     1     -26.475  65.071  25.576  1.00  0.00     0.102 A 
ENDROOT
BRANCH   7  10
HETATM   10  C8  UNL     1     -26.649  62.536  28.097  1.00  0.00     0.060 C 
HETATM   11  C9  UNL     1     -25.544  62.372  29.152  1.00  0.00     0.040 C 
HETATM   12  C10 UNL     1     -25.580  63.489  30.204  1.00  0.00     0.235 C 
HETATM   13  N3  UNL     1     -26.905  63.579  30.860  1.00  0.00    -0.071 N 
HETATM   14  H11 UNL     1     -27.100  62.655  31.311  1.00  0.00     0.279 HD
HETATM   15  C14 UNL     1     -27.957  63.867  29.856  1.00  0.00     0.235 C 
HETATM   16  C15 UNL     1     -28.014  62.789  28.761  1.00  0.00     0.040 C 
BRANCH  13  17
HETATM   17  C11 UNL     1     -26.850  64.630  31.910  1.00  0.00     0.234 C 
BRANCH  17  18
HETATM   18  C12 UNL     1     -28.169  64.830  32.690  1.00  0.00     0.023 C 
HETATM   19  C13 UNL     1     -28.396  66.271  33.142  1.00  0.00     0.007 C 
ENDBRANCH  17  18
ENDBRANCH  13  17
ENDBRANCH   7  10
BRANCH   1  20
HETATM   20  C1  UNL     1     -28.327  66.118  24.195  1.00  0.00     0.167 C 
HETATM   21  N1  UNL     1     -29.068  65.069  24.026  1.00  0.00    -0.277 NA
HETATM   22  H1  UNL     1     -30.071  65.145  23.744  1.00  0.00     0.189 HD
BRANCH  20  23
HETATM   23  O1  UNL     1     -28.869  67.389  23.999  1.00  0.00    -0.344 OA
HETATM   24  H2  UNL     1     -29.849  67.580  24.170  1.00  0.00     0.219 HD
ENDBRANCH  20  23
ENDBRANCH   1  20
TORSDOF 5
ENDMDL
MODEL 6
REMARK VINA RESULT:      -7.6      1.784      2.804
REMARK  5 active torsions:
REMARK  status: ('A' for Active; 'I' for Inactive)
REMARK    1  A    between atoms: C1_3  and  O1_4 
REMARK    2  A    between atoms: C1_3  and  C2_6 
REMARK    3  A    between atoms: C7_12  and  C8_13 
REMARK    4  A    between atoms: N3_16  and  C11_18 
REMARK    5  A    between atoms: C11_18  and  C12_19 
ROOT
HETATM    1  C2  UNL     1     -27.228  65.238  25.399  1.00  0.00     0.047 A 
HETATM    2  C3  UNL     1     -28.067  65.678  24.349  1.00  0.00     0.018 A 
HETATM    3  C4  UNL     1     -27.556  66.466  23.293  1.00  0.00     0.003 A 
HETATM    4  C5  UNL     1     -26.199  66.828  23.267  1.00  0.00     0.034 A 
HETATM    5  C6  UNL     1     -25.391  66.383  24.308  1.00  0.00     0.088 A 
HETATM    6  N2  UNL     1     -24.081  66.614  24.480  1.00  0.00    -0.231 NA
HETATM    7  C7  UNL     1     -23.812  65.957  25.638  1.00  0.00     0.131 A 
HETATM    8  N4  UNL     1     -24.889  65.341  26.191  1.00  0.00    -0.230 NA
HETATM    9  C16 UNL     1     -25.877  65.623  25.329  1.00  0.00     0.102 A 
ENDROOT
BRANCH   7  10
HETATM   10  C8  UNL     1     -22.438  65.956  26.263  1.00  0.00     0.060 C 
HETATM   11  C9  UNL     1     -22.144  64.637  26.994  1.00  0.00     0.040 C 
HETATM   12  C10 UNL     1     -21.768  63.509  26.023  1.00  0.00     0.235 C 
HETATM   13  N3  UNL     1     -20.620  63.887  25.167  1.00  0.00    -0.071 N 
HETATM   14  H11 UNL     1     -19.812  64.104  25.796  1.00  0.00     0.279 HD
HETATM   15  C14 UNL     1     -20.951  65.087  24.362  1.00  0.00     0.235 C 
HETATM   16  C15 UNL     1     -21.328  66.285  25.250  1.00  0.00     0.040 C 
BRANCH  13  17
HETATM   17  C11 UNL     1     -20.267  62.731  24.302  1.00  0.00     0.234 C 
BRANCH  17  18
HETATM   18  C12 UNL     1     -21.299  62.414  23.196  1.00  0.00     0.023 C 
HETATM   19  C13 UNL     1     -20.720  62.487  21.785  1.00  0.00     0.007 C 
ENDBRANCH  17  18
ENDBRANCH  13  17
ENDBRANCH   7  10
BRANCH   1  20
HETATM   20  C1  UNL     1     -27.771  64.414  26.506  1.00  0.00     0.167 C 
HETATM   21  N1  UNL     1     -27.210  64.426  27.674  1.00  0.00    -0.277 NA
HETATM   22  H1  UNL     1     -27.579  63.853  28.465  1.00  0.00     0.189 HD
BRANCH  20  23
HETATM   23  O1  UNL     1     -28.897  63.620  26.286  1.00  0.00    -0.344 OA
HETATM   24  H2  UNL     1     -29.582  63.456  27.014  1.00  0.00     0.219 HD
ENDBRANCH  20  23
ENDBRANCH   1  20
TORSDOF 5
ENDMDL
MODEL 7
REMARK VINA RESULT:      -7.3      3.018      5.129
REMARK  5 active torsions:
REMARK  status: ('A' for Active; 'I' for Inactive)
REMARK    1  A    between atoms: C1_3  and  O1_4 
REMARK    2  A    between atoms: C1_3  and  C2_6 
REMARK    3  A    between atoms: C7_12  and  C8_13 
REMARK    4  A    between atoms: N3_16  and  C11_18 
REMARK    5  A    between atoms: C11_18  and  C12_19 
ROOT
HETATM    1  C2  UNL     1     -24.366  66.143  24.769  1.00  0.00     0.047 A 
HETATM    2  C3  UNL     1     -25.149  66.987  23.947  1.00  0.00     0.018 A 
HETATM    3  C4  UNL     1     -26.557  66.876  23.926  1.00  0.00     0.003 A 
HETATM    4  C5  UNL     1     -27.208  65.922  24.725  1.00  0.00     0.034 A 
HETATM    5  C6  UNL     1     -26.420  65.104  25.528  1.00  0.00     0.088 A 
HETATM    6  N2  UNL     1     -26.831  64.133  26.357  1.00  0.00    -0.231 NA
HETATM    7  C7  UNL     1     -25.665  63.670  26.876  1.00  0.00     0.131 A 
HETATM    8  N4  UNL     1     -24.558  64.299  26.403  1.00  0.00    -0.230 NA
HETATM    9  C16 UNL     1     -25.061  65.206  25.553  1.00  0.00     0.102 A 
ENDROOT
BRANCH   7  10
HETATM   10  C8  UNL     1     -25.619  62.527  27.860  1.00  0.00     0.060 C 
HETATM   11  C9  UNL     1     -24.350  62.568  28.725  1.00  0.00     0.040 C 
HETATM   12  C10 UNL     1     -24.449  63.610  29.848  1.00  0.00     0.235 C 
HETATM   13  N3  UNL     1     -25.640  63.384  30.698  1.00  0.00    -0.071 N 
HETATM   14  H11 UNL     1     -25.562  62.422  31.106  1.00  0.00     0.279 HD
HETATM   15  C14 UNL     1     -26.877  63.473  29.886  1.00  0.00     0.235 C 
HETATM   16  C15 UNL     1     -26.881  62.451  28.736  1.00  0.00     0.040 C 
BRANCH  13  17
HETATM   17  C11 UNL     1     -25.639  64.381  31.801  1.00  0.00     0.234 C 
BRANCH  17  18
HETATM   18  C12 UNL     1     -24.627  65.535  31.624  1.00  0.00     0.023 C 
HETATM   19  C13 UNL     1     -25.116  66.865  32.193  1.00  0.00     0.007 C 
ENDBRANCH  17  18
ENDBRANCH  13  17
ENDBRANCH   7  10
BRANCH   1  20
HETATM   20  C1  UNL     1     -22.887  66.262  24.784  1.00  0.00     0.167 C 
HETATM   21  N1  UNL     1     -22.140  65.203  24.827  1.00  0.00    -0.277 NA
HETATM   22  H1  UNL     1     -21.098  65.268  24.838  1.00  0.00     0.189 HD
BRANCH  20  23
HETATM   23  O1  UNL     1     -22.297  67.526  24.752  1.00  0.00    -0.344 OA
HETATM   24  H2  UNL     1     -22.530  68.202  24.035  1.00  0.00     0.219 HD
ENDBRANCH  20  23
ENDBRANCH   1  20
TORSDOF 5
ENDMDL
MODEL 8
REMARK VINA RESULT:      -7.2      2.351      3.414
REMARK  5 active torsions:
REMARK  status: ('A' for Active; 'I' for Inactive)
REMARK    1  A    between atoms: C1_3  and  O1_4 
REMARK    2  A    between atoms: C1_3  and  C2_6 
REMARK    3  A    between atoms: C7_12  and  C8_13 
REMARK    4  A    between atoms: N3_16  and  C11_18 
REMARK    5  A    between atoms: C11_18  and  C12_19 
ROOT
HETATM    1  C2  UNL     1     -27.614  64.040  26.943  1.00  0.00     0.047 A 
HETATM    2  C3  UNL     1     -28.677  64.432  26.095  1.00  0.00     0.018 A 
HETATM    3  C4  UNL     1     -28.452  65.303  25.005  1.00  0.00     0.003 A 
HETATM    4  C5  UNL     1     -27.164  65.798  24.744  1.00  0.00     0.034 A 
HETATM    5  C6  UNL     1     -26.133  65.399  25.588  1.00  0.00     0.088 A 
HETATM    6  N2  UNL     1     -24.841  65.752  25.522  1.00  0.00    -0.231 NA
HETATM    7  C7  UNL     1     -24.296  65.084  26.572  1.00  0.00     0.131 A 
HETATM    8  N4  UNL     1     -25.186  64.347  27.284  1.00  0.00    -0.230 NA
HETATM    9  C16 UNL     1     -26.343  64.559  26.640  1.00  0.00     0.102 A 
ENDROOT
BRANCH   7  10
HETATM   10  C8  UNL     1     -22.833  65.198  26.926  1.00  0.00     0.060 C 
HETATM   11  C9  UNL     1     -22.233  63.839  27.318  1.00  0.00     0.040 C 
HETATM   12  C10 UNL     1     -21.931  62.965  26.094  1.00  0.00     0.235 C 
HETATM   13  N3  UNL     1     -21.040  63.659  25.135  1.00  0.00    -0.071 N 
HETATM   14  H11 UNL     1     -20.152  63.894  25.637  1.00  0.00     0.279 HD
HETATM   15  C14 UNL     1     -21.676  64.909  24.654  1.00  0.00     0.235 C 
HETATM   16  C15 UNL     1     -22.006  65.866  25.814  1.00  0.00     0.040 C 
BRANCH  13  17
HETATM   17  C11 UNL     1     -20.734  62.737  24.010  1.00  0.00     0.234 C 
BRANCH  17  18
HETATM   18  C12 UNL     1     -19.474  61.866  24.217  1.00  0.00     0.023 C 
HETATM   19  C13 UNL     1     -18.181  62.556  23.787  1.00  0.00     0.007 C 
ENDBRANCH  17  18
ENDBRANCH  13  17
ENDBRANCH   7  10
BRANCH   1  20
HETATM   20  C1  UNL     1     -27.857  63.128  28.087  1.00  0.00     0.167 C 
HETATM   21  N1  UNL     1     -28.919  63.255  28.819  1.00  0.00    -0.277 NA
HETATM   22  H1  UNL     1     -29.106  62.622  29.627  1.00  0.00     0.189 HD
BRANCH  20  23
HETATM   23  O1  UNL     1     -26.932  62.125  28.376  1.00  0.00    -0.344 OA
HETATM   24  H2  UNL     1     -27.102  61.439  29.102  1.00  0.00     0.219 HD
ENDBRANCH  20  23
ENDBRANCH   1  20
TORSDOF 5
ENDMDL
MODEL 9
REMARK VINA RESULT:      -7.1      2.092      2.926
REMARK  5 active torsions:
REMARK  status: ('A' for Active; 'I' for Inactive)
REMARK    1  A    between atoms: C1_3  and  O1_4 
REMARK    2  A    between atoms: C1_3  and  C2_6 
REMARK    3  A    between atoms: C7_12  and  C8_13 
REMARK    4  A    between atoms: N3_16  and  C11_18 
REMARK    5  A    between atoms: C11_18  and  C12_19 
ROOT
HETATM    1  C2  UNL     1     -27.593  65.630  24.492  1.00  0.00     0.047 A 
HETATM    2  C3  UNL     1     -27.525  66.522  23.395  1.00  0.00     0.018 A 
HETATM    3  C4  UNL     1     -26.316  67.177  23.068  1.00  0.00     0.003 A 
HETATM    4  C5  UNL     1     -25.157  66.954  23.828  1.00  0.00     0.034 A 
HETATM    5  C6  UNL     1     -25.245  66.072  24.900  1.00  0.00     0.088 A 
HETATM    6  N2  UNL     1     -24.270  65.721  25.751  1.00  0.00    -0.231 NA
HETATM    7  C7  UNL     1     -24.898  64.850  26.582  1.00  0.00     0.131 A 
HETATM    8  N4  UNL     1     -26.210  64.654  26.293  1.00  0.00    -0.230 NA
HETATM    9  C16 UNL     1     -26.407  65.436  25.221  1.00  0.00     0.102 A 
ENDROOT
BRANCH   7  10
HETATM   10  C8  UNL     1     -24.195  64.198  27.748  1.00  0.00     0.060 C 
HETATM   11  C9  UNL     1     -23.859  62.726  27.462  1.00  0.00     0.040 C 
HETATM   12  C10 UNL     1     -22.628  62.579  26.558  1.00  0.00     0.235 C 
HETATM   13  N3  UNL     1     -21.448  63.271  27.126  1.00  0.00    -0.071 N 
HETATM   14  H11 UNL     1     -21.256  62.853  28.066  1.00  0.00     0.279 HD
HETATM   15  C14 UNL     1     -21.726  64.719  27.281  1.00  0.00     0.235 C 
HETATM   16  C15 UNL     1     -22.942  64.974  28.189  1.00  0.00     0.040 C 
BRANCH  13  17
HETATM   17  C11 UNL     1     -20.279  63.033  26.240  1.00  0.00     0.234 C 
BRANCH  17  18
HETATM   18  C12 UNL     1     -19.663  64.311  25.628  1.00  0.00     0.023 C 
HETATM   19  C13 UNL     1     -18.193  64.512  25.993  1.00  0.00     0.007 C 
ENDBRANCH  17  18
ENDBRANCH  13  17
ENDBRANCH   7  10
BRANCH   1  20
HETATM   20  C1  UNL     1     -28.865  64.947  24.833  1.00  0.00     0.167 C 
HETATM   21  N1  UNL     1     -29.870  64.976  24.014  1.00  0.00    -0.277 NA
HETATM   22  H1  UNL     1     -30.772  64.502  24.238  1.00  0.00     0.189 HD
BRANCH  20  23
HETATM   23  O1  UNL     1     -28.979  64.268  26.046  1.00  0.00    -0.344 OA
HETATM   24  H2  UNL     1     -29.874  64.144  26.503  1.00  0.00     0.219 HD
ENDBRANCH  20  23
ENDBRANCH   1  20
TORSDOF 5
ENDMDL
