MODEL 1
REMARK VINA RESULT:      -9.9      0.000      0.000
REMARK  6 active torsions:
REMARK  status: ('A' for Active; 'I' for Inactive)
REMARK    1  A    between atoms: N2_6  and  C3_7 
REMARK    2  A    between atoms: C3_7  and  C4_8 
REMARK    3  A    between atoms: C4_8  and  C5_9 
REMARK    4  A    between atoms: C5_9  and  C6_10 
REMARK    5  A    between atoms: C6_10  and  N3_11 
REMARK    6  A    between atoms: C9_14  and  C10_15 
ROOT
HETATM    1  C4  UNL     1     -23.798  63.556  26.587  1.00  0.00     0.022 C 
ENDROOT
BRANCH   1   2
HETATM    2  C3  UNL     1     -23.974  65.072  26.745  1.00  0.00     0.134 C 
BRANCH   2   3
HETATM    3  N2  UNL     1     -24.701  65.634  25.584  1.00  0.00    -0.297 N 
HETATM    4  C2  UNL     1     -23.992  66.341  24.642  1.00  0.00     0.352 A 
HETATM    5  N1  UNL     1     -24.620  66.896  23.578  1.00  0.00    -0.153 NA
HETATM    6  O2  UNL     1     -22.744  66.488  24.746  1.00  0.00    -0.244 OA
HETATM    7  C1  UNL     1     -25.950  66.771  23.383  1.00  0.00     0.286 A 
HETATM    8  O1  UNL     1     -26.472  67.320  22.376  1.00  0.00    -0.265 OA
HETATM    9  C23 UNL     1     -26.720  66.028  24.292  1.00  0.00     0.099 A 
HETATM   10  C18 UNL     1     -26.061  65.439  25.407  1.00  0.00     0.057 A 
HETATM   11  C22 UNL     1     -28.111  65.848  24.116  1.00  0.00     0.134 A 
HETATM   12  C19 UNL     1     -26.834  64.654  26.300  1.00  0.00     0.031 A 
HETATM   13  C20 UNL     1     -28.204  64.485  26.106  1.00  0.00     0.005 A 
HETATM   14  C21 UNL     1     -28.841  65.084  25.025  1.00  0.00     0.043 A 
HETATM   15  F1  UNL     1     -28.772  66.404  23.067  1.00  0.00    -0.205 F 
ENDBRANCH   2   3
ENDBRANCH   1   2
BRANCH   1  16
HETATM   16  C5  UNL     1     -22.395  63.214  26.063  1.00  0.00     0.029 C 
BRANCH  16  17
HETATM   17  C6  UNL     1     -22.359  62.970  24.540  1.00  0.00     0.235 C 
BRANCH  17  18
HETATM   18  N3  UNL     1     -21.301  63.727  23.822  1.00  0.00    -0.068 N 
HETATM   19  C7  UNL     1     -20.762  62.960  22.670  1.00  0.00     0.262 C 
HETATM   20  C8  UNL     1     -19.486  63.539  22.110  1.00  0.00     0.008 C 
HETATM   21  C9  UNL     1     -18.729  64.430  22.774  1.00  0.00    -0.049 C 
HETATM   22  C16 UNL     1     -19.196  64.986  24.096  1.00  0.00     0.067 C 
HETATM   23  C17 UNL     1     -20.215  64.062  24.767  1.00  0.00     0.240 C 
HETATM   24  H9  UNL     1     -21.708  64.626  23.474  1.00  0.00     0.280 HD
BRANCH  21  25
HETATM   25  C10 UNL     1     -17.458  64.932  22.181  1.00  0.00    -0.030 A 
HETATM   26  C11 UNL     1     -16.732  65.968  22.801  1.00  0.00     0.012 A 
HETATM   27  C12 UNL     1     -15.545  66.441  22.232  1.00  0.00     0.001 A 
HETATM   28  C13 UNL     1     -15.073  65.893  21.038  1.00  0.00     0.000 A 
HETATM   29  C14 UNL     1     -15.788  64.872  20.409  1.00  0.00     0.001 A 
HETATM   30  C15 UNL     1     -16.975  64.395  20.972  1.00  0.00     0.012 A 
ENDBRANCH  21  25
ENDBRANCH  17  18
ENDBRANCH  16  17
ENDBRANCH   1  16
TORSDOF 6
ENDMDL
MODEL 2
REMARK VINA RESULT:      -9.8      1.520      2.367
REMARK  6 active torsions:
REMARK  status: ('A' for Active; 'I' for Inactive)
REMARK    1  A    between atoms: N2_6  and  C3_7 
REMARK    2  A    between atoms: C3_7  and  C4_8 
REMARK    3  A    between atoms: C4_8  and  C5_9 
REMARK    4  A    between atoms: C5_9  and  C6_10 
REMARK    5  A    between atoms: C6_10  and  N3_11 
REMARK    6  A    between atoms: C9_14  and  C10_15 
ROOT
HETATM    1  C4  UNL     1     -23.050  65.056  24.684  1.00  0.00     0.022 C 
ENDROOT
BRANCH   1   2
HETATM    2  C3  UNL     1     -23.820  66.346  24.994  1.00  0.00     0.134 C 
BRANCH   2   3
HETATM    3  N2  UNL     1     -25.256  66.183  24.672  1.00  0.00    -0.297 N 
HETATM    4  C2  UNL     1     -25.747  66.780  23.535  1.00  0.00     0.352 A 
HETATM    5  N1  UNL     1     -27.060  66.681  23.214  1.00  0.00    -0.153 NA
HETATM    6  O2  UNL     1     -24.990  67.430  22.765  1.00  0.00    -0.244 OA
HETATM    7  C1  UNL     1     -27.934  65.988  23.975  1.00  0.00     0.286 A 
HETATM    8  O1  UNL     1     -29.143  65.944  23.624  1.00  0.00    -0.265 OA
HETATM    9  C23 UNL     1     -27.483  65.326  25.128  1.00  0.00     0.099 A 
HETATM   10  C18 UNL     1     -26.103  65.424  25.462  1.00  0.00     0.057 A 
HETATM   11  C22 UNL     1     -28.356  64.569  25.941  1.00  0.00     0.134 A 
HETATM   12  C19 UNL     1     -25.642  64.720  26.603  1.00  0.00     0.031 A 
HETATM   13  C20 UNL     1     -26.519  63.974  27.389  1.00  0.00     0.005 A 
HETATM   14  C21 UNL     1     -27.869  63.904  27.065  1.00  0.00     0.043 A 
HETATM   15  F1  UNL     1     -29.679  64.462  25.654  1.00  0.00    -0.205 F 
ENDBRANCH   2   3
ENDBRANCH   1   2
BRANCH   1  16
HETATM   16  C5  UNL     1     -21.535  65.307  24.670  1.00  0.00     0.029 C 
BRANCH  16  17
HETATM   17  C6  UNL     1     -20.713  64.049  24.315  1.00  0.00     0.235 C 
BRANCH  17  18
HETATM   18  N3  UNL     1     -19.685  64.263  23.264  1.00  0.00    -0.068 N 
HETATM   19  C7  UNL     1     -18.511  63.376  23.456  1.00  0.00     0.262 C 
HETATM   20  C8  UNL     1     -17.319  63.770  22.618  1.00  0.00     0.008 C 
HETATM   21  C9  UNL     1     -17.199  64.974  22.030  1.00  0.00    -0.049 C 
HETATM   22  C16 UNL     1     -18.334  65.966  22.096  1.00  0.00     0.067 C 
HETATM   23  C17 UNL     1     -19.265  65.680  23.276  1.00  0.00     0.240 C 
HETATM   24  H9  UNL     1     -20.113  64.067  22.329  1.00  0.00     0.280 HD
BRANCH  21  25
HETATM   25  C10 UNL     1     -15.978  65.315  21.249  1.00  0.00    -0.030 A 
HETATM   26  C11 UNL     1     -15.638  64.592  20.089  1.00  0.00     0.012 A 
HETATM   27  C12 UNL     1     -14.483  64.912  19.367  1.00  0.00     0.001 A 
HETATM   28  C13 UNL     1     -13.654  65.950  19.796  1.00  0.00     0.000 A 
HETATM   29  C14 UNL     1     -13.974  66.668  20.949  1.00  0.00     0.001 A 
HETATM   30  C15 UNL     1     -15.126  66.353  21.676  1.00  0.00     0.012 A 
ENDBRANCH  21  25
ENDBRANCH  17  18
ENDBRANCH  16  17
ENDBRANCH   1  16
TORSDOF 6
ENDMDL
MODEL 3
REMARK VINA RESULT:      -9.3      1.904      2.734
REMARK  6 active torsions:
REMARK  status: ('A' for Active; 'I' for Inactive)
REMARK    1  A    between atoms: N2_6  and  C3_7 
REMARK    2  A    between atoms: C3_7  and  C4_8 
REMARK    3  A    between atoms: C4_8  and  C5_9 
REMARK    4  A    between atoms: C5_9  and  C6_10 
REMARK    5  A    between atoms: C6_10  and  N3_11 
REMARK    6  A    between atoms: C9_14  and  C10_15 
ROOT
HETATM    1  C4  UNL     1     -23.110  63.291  26.280  1.00  0.00     0.022 C 
ENDROOT
BRANCH   1   2
HETATM    2  C3  UNL     1     -23.708  64.605  26.797  1.00  0.00     0.134 C 
BRANCH   2   3
HETATM    3  N2  UNL     1     -25.137  64.706  26.426  1.00  0.00    -0.297 N 
HETATM    4  C2  UNL     1     -26.062  64.006  27.164  1.00  0.00     0.352 A 
HETATM    5  N1  UNL     1     -27.377  64.048  26.843  1.00  0.00    -0.153 NA
HETATM    6  O2  UNL     1     -25.707  63.311  28.154  1.00  0.00    -0.244 OA
HETATM    7  C1  UNL     1     -27.842  64.781  25.809  1.00  0.00     0.286 A 
HETATM    8  O1  UNL     1     -29.076  64.768  25.561  1.00  0.00    -0.265 OA
HETATM    9  C23 UNL     1     -26.949  65.547  25.043  1.00  0.00     0.099 A 
HETATM   10  C18 UNL     1     -25.568  65.509  25.382  1.00  0.00     0.057 A 
HETATM   11  C22 UNL     1     -27.392  66.349  23.967  1.00  0.00     0.134 A 
HETATM   12  C19 UNL     1     -24.675  66.317  24.633  1.00  0.00     0.031 A 
HETATM   13  C20 UNL     1     -25.133  67.105  23.578  1.00  0.00     0.005 A 
HETATM   14  C21 UNL     1     -26.482  67.117  23.242  1.00  0.00     0.043 A 
HETATM   15  F1  UNL     1     -28.703  66.401  23.613  1.00  0.00    -0.205 F 
ENDBRANCH   2   3
ENDBRANCH   1   2
BRANCH   1  16
HETATM   16  C5  UNL     1     -22.478  63.479  24.893  1.00  0.00     0.029 C 
BRANCH  16  17
HETATM   17  C6  UNL     1     -21.347  64.529  24.878  1.00  0.00     0.235 C 
BRANCH  17  18
HETATM   18  N3  UNL     1     -20.350  64.342  23.792  1.00  0.00    -0.068 N 
HETATM   19  C7  UNL     1     -19.415  63.229  24.090  1.00  0.00     0.262 C 
HETATM   20  C8  UNL     1     -18.206  63.204  23.186  1.00  0.00     0.008 C 
HETATM   21  C9  UNL     1     -17.830  64.251  22.432  1.00  0.00    -0.049 C 
HETATM   22  C16 UNL     1     -18.690  65.490  22.372  1.00  0.00     0.067 C 
HETATM   23  C17 UNL     1     -19.602  65.601  23.595  1.00  0.00     0.240 C 
HETATM   24  H9  UNL     1     -20.858  64.133  22.901  1.00  0.00     0.280 HD
BRANCH  21  25
HETATM   25  C10 UNL     1     -16.603  64.175  21.591  1.00  0.00    -0.030 A 
HETATM   26  C11 UNL     1     -16.578  64.733  20.298  1.00  0.00     0.012 A 
HETATM   27  C12 UNL     1     -15.425  64.648  19.511  1.00  0.00     0.001 A 
HETATM   28  C13 UNL     1     -14.288  64.002  20.001  1.00  0.00     0.000 A 
HETATM   29  C14 UNL     1     -14.303  63.437  21.277  1.00  0.00     0.001 A 
HETATM   30  C15 UNL     1     -15.453  63.518  22.069  1.00  0.00     0.012 A 
ENDBRANCH  21  25
ENDBRANCH  17  18
ENDBRANCH  16  17
ENDBRANCH   1  16
TORSDOF 6
ENDMDL
MODEL 4
REMARK VINA RESULT:      -9.3      2.040      3.229
REMARK  6 active torsions:
REMARK  status: ('A' for Active; 'I' for Inactive)
REMARK    1  A    between atoms: N2_6  and  C3_7 
REMARK    2  A    between atoms: C3_7  and  C4_8 
REMARK    3  A    between atoms: C4_8  and  C5_9 
REMARK    4  A    between atoms: C5_9  and  C6_10 
REMARK    5  A    between atoms: C6_10  and  N3_11 
REMARK    6  A    between atoms: C9_14  and  C10_15 
ROOT
HETATM    1  C4  UNL     1     -22.252  63.520  24.644  1.00  0.00     0.022 C 
ENDROOT
BRANCH   1   2
HETATM    2  C3  UNL     1     -22.619  64.621  25.647  1.00  0.00     0.134 C 
BRANCH   2   3
HETATM    3  N2  UNL     1     -24.087  64.694  25.824  1.00  0.00    -0.297 N 
HETATM    4  C2  UNL     1     -24.792  65.629  25.104  1.00  0.00     0.352 A 
HETATM    5  N1  UNL     1     -26.133  65.750  25.255  1.00  0.00    -0.153 NA
HETATM    6  O2  UNL     1     -24.209  66.392  24.288  1.00  0.00    -0.244 OA
HETATM    7  C1  UNL     1     -26.835  64.960  26.095  1.00  0.00     0.286 A 
HETATM    8  O1  UNL     1     -28.079  65.132  26.193  1.00  0.00    -0.265 OA
HETATM    9  C23 UNL     1     -26.174  63.962  26.828  1.00  0.00     0.099 A 
HETATM   10  C18 UNL     1     -24.767  63.829  26.667  1.00  0.00     0.057 A 
HETATM   11  C22 UNL     1     -26.871  63.095  27.701  1.00  0.00     0.134 A 
HETATM   12  C19 UNL     1     -24.109  62.793  27.377  1.00  0.00     0.031 A 
HETATM   13  C20 UNL     1     -24.815  61.946  28.229  1.00  0.00     0.005 A 
HETATM   14  C21 UNL     1     -26.187  62.099  28.395  1.00  0.00     0.043 A 
HETATM   15  F1  UNL     1     -28.213  63.201  27.884  1.00  0.00    -0.205 F 
ENDBRANCH   2   3
ENDBRANCH   1   2
BRANCH   1  16
HETATM   16  C5  UNL     1     -20.758  63.566  24.293  1.00  0.00     0.029 C 
BRANCH  16  17
HETATM   17  C6  UNL     1     -20.357  62.547  23.204  1.00  0.00     0.235 C 
BRANCH  17  18
HETATM   18  N3  UNL     1     -19.107  62.887  22.477  1.00  0.00    -0.068 N 
HETATM   19  C7  UNL     1     -17.959  63.048  23.403  1.00  0.00     0.262 C 
HETATM   20  C8  UNL     1     -16.757  63.696  22.759  1.00  0.00     0.008 C 
HETATM   21  C9  UNL     1     -16.818  64.367  21.595  1.00  0.00    -0.049 C 
HETATM   22  C16 UNL     1     -18.105  64.405  20.809  1.00  0.00     0.067 C 
HETATM   23  C17 UNL     1     -19.318  64.126  21.700  1.00  0.00     0.240 C 
HETATM   24  H9  UNL     1     -18.894  62.119  21.797  1.00  0.00     0.280 HD
BRANCH  21  25
HETATM   25  C10 UNL     1     -15.602  65.018  21.034  1.00  0.00    -0.030 A 
HETATM   26  C11 UNL     1     -14.911  64.443  19.949  1.00  0.00     0.012 A 
HETATM   27  C12 UNL     1     -13.763  65.055  19.434  1.00  0.00     0.001 A 
HETATM   28  C13 UNL     1     -13.289  66.241  19.998  1.00  0.00     0.000 A 
HETATM   29  C14 UNL     1     -13.959  66.816  21.079  1.00  0.00     0.001 A 
HETATM   30  C15 UNL     1     -15.107  66.209  21.599  1.00  0.00     0.012 A 
ENDBRANCH  21  25
ENDBRANCH  17  18
ENDBRANCH  16  17
ENDBRANCH   1  16
TORSDOF 6
ENDMDL
MODEL 5
REMARK VINA RESULT:      -9.1      4.950     10.971
REMARK  6 active torsions:
REMARK  status: ('A' for Active; 'I' for Inactive)
REMARK    1  A    between atoms: N2_6  and  C3_7 
REMARK    2  A    between atoms: C3_7  and  C4_8 
REMARK    3  A    between atoms: C4_8  and  C5_9 
REMARK    4  A    between atoms: C5_9  and  C6_10 
REMARK    5  A    between atoms: C6_10  and  N3_11 
REMARK    6  A    between atoms: C9_14  and  C10_15 
ROOT
HETATM    1  C4  UNL     1     -17.093  66.568  22.496  1.00  0.00     0.022 C 
ENDROOT
BRANCH   1   2
HETATM    2  C3  UNL     1     -16.309  65.257  22.632  1.00  0.00     0.134 C 
BRANCH   2   3
HETATM    3  N2  UNL     1     -15.389  65.080  21.485  1.00  0.00    -0.297 N 
HETATM    4  C2  UNL     1     -15.835  64.391  20.382  1.00  0.00     0.352 A 
HETATM    5  N1  UNL     1     -15.020  64.182  19.321  1.00  0.00    -0.153 NA
HETATM    6  O2  UNL     1     -17.012  63.940  20.333  1.00  0.00    -0.244 OA
HETATM    7  C1  UNL     1     -13.753  64.647  19.287  1.00  0.00     0.286 A 
HETATM    8  O1  UNL     1     -13.045  64.409  18.273  1.00  0.00    -0.265 OA
HETATM    9  C23 UNL     1     -13.254  65.390  20.369  1.00  0.00     0.099 A 
HETATM   10  C18 UNL     1     -14.112  65.616  21.481  1.00  0.00     0.057 A 
HETATM   11  C22 UNL     1     -11.943  65.918  20.367  1.00  0.00     0.134 A 
HETATM   12  C19 UNL     1     -13.620  66.403  22.554  1.00  0.00     0.031 A 
HETATM   13  C20 UNL     1     -12.325  66.919  22.530  1.00  0.00     0.005 A 
HETATM   14  C21 UNL     1     -11.489  66.673  21.447  1.00  0.00     0.043 A 
HETATM   15  F1  UNL     1     -11.097  65.714  19.325  1.00  0.00    -0.205 F 
ENDBRANCH   2   3
ENDBRANCH   1   2
BRANCH   1  16
HETATM   16  C5  UNL     1     -18.607  66.315  22.550  1.00  0.00     0.029 C 
BRANCH  16  17
HETATM   17  C6  UNL     1     -19.208  66.523  23.957  1.00  0.00     0.235 C 
BRANCH  17  18
HETATM   18  N3  UNL     1     -20.626  66.097  24.088  1.00  0.00    -0.068 N 
HETATM   19  C7  UNL     1     -21.464  67.159  24.698  1.00  0.00     0.262 C 
HETATM   20  C8  UNL     1     -22.822  66.670  25.140  1.00  0.00     0.008 C 
HETATM   21  C9  UNL     1     -23.121  65.367  25.291  1.00  0.00    -0.049 C 
HETATM   22  C16 UNL     1     -22.116  64.309  24.905  1.00  0.00     0.067 C 
HETATM   23  C17 UNL     1     -20.690  64.863  24.898  1.00  0.00     0.240 C 
HETATM   24  H9  UNL     1     -20.998  65.872  23.136  1.00  0.00     0.280 HD
BRANCH  21  25
HETATM   25  C10 UNL     1     -24.469  64.952  25.769  1.00  0.00    -0.030 A 
HETATM   26  C11 UNL     1     -25.631  65.597  25.303  1.00  0.00     0.012 A 
HETATM   27  C12 UNL     1     -26.893  65.209  25.766  1.00  0.00     0.001 A 
HETATM   28  C13 UNL     1     -27.009  64.178  26.700  1.00  0.00     0.000 A 
HETATM   29  C14 UNL     1     -25.865  63.537  27.177  1.00  0.00     0.001 A 
HETATM   30  C15 UNL     1     -24.601  63.921  26.720  1.00  0.00     0.012 A 
ENDBRANCH  21  25
ENDBRANCH  17  18
ENDBRANCH  16  17
ENDBRANCH   1  16
TORSDOF 6
ENDMDL
MODEL 6
REMARK VINA RESULT:      -9.1      2.261      3.226
REMARK  6 active torsions:
REMARK  status: ('A' for Active; 'I' for Inactive)
REMARK    1  A    between atoms: N2_6  and  C3_7 
REMARK    2  A    between atoms: C3_7  and  C4_8 
REMARK    3  A    between atoms: C4_8  and  C5_9 
REMARK    4  A    between atoms: C5_9  and  C6_10 
REMARK    5  A    between atoms: C6_10  and  N3_11 
REMARK    6  A    between atoms: C9_14  and  C10_15 
ROOT
HETATM    1  C4  UNL     1     -24.598  62.967  27.374  1.00  0.00     0.022 C 
ENDROOT
BRANCH   1   2
HETATM    2  C3  UNL     1     -25.469  64.150  27.814  1.00  0.00     0.134 C 
BRANCH   2   3
HETATM    3  N2  UNL     1     -26.489  64.454  26.785  1.00  0.00    -0.297 N 
HETATM    4  C2  UNL     1     -27.772  63.997  26.975  1.00  0.00     0.352 A 
HETATM    5  N1  UNL     1     -28.732  64.229  26.047  1.00  0.00    -0.153 NA
HETATM    6  O2  UNL     1     -28.085  63.356  28.014  1.00  0.00    -0.244 OA
HETATM    7  C1  UNL     1     -28.485  64.923  24.916  1.00  0.00     0.286 A 
HETATM    8  O1  UNL     1     -29.421  65.094  24.091  1.00  0.00    -0.265 OA
HETATM    9  C23 UNL     1     -27.203  65.446  24.686  1.00  0.00     0.099 A 
HETATM   10  C18 UNL     1     -26.195  65.209  25.662  1.00  0.00     0.057 A 
HETATM   11  C22 UNL     1     -26.903  66.200  23.528  1.00  0.00     0.134 A 
HETATM   12  C19 UNL     1     -24.912  65.775  25.448  1.00  0.00     0.031 A 
HETATM   13  C20 UNL     1     -24.639  66.520  24.301  1.00  0.00     0.005 A 
HETATM   14  C21 UNL     1     -25.626  66.726  23.344  1.00  0.00     0.043 A 
HETATM   15  F1  UNL     1     -27.840  66.437  22.574  1.00  0.00    -0.205 F 
ENDBRANCH   2   3
ENDBRANCH   1   2
BRANCH   1  16
HETATM   16  C5  UNL     1     -23.335  62.857  28.241  1.00  0.00     0.029 C 
BRANCH  16  17
HETATM   17  C6  UNL     1     -22.395  64.074  28.102  1.00  0.00     0.235 C 
BRANCH  17  18
HETATM   18  N3  UNL     1     -21.778  64.222  26.758  1.00  0.00    -0.068 N 
HETATM   19  C7  UNL     1     -20.797  63.144  26.482  1.00  0.00     0.262 C 
HETATM   20  C8  UNL     1     -19.922  63.422  25.283  1.00  0.00     0.008 C 
HETATM   21  C9  UNL     1     -19.795  64.643  24.734  1.00  0.00    -0.049 C 
HETATM   22  C16 UNL     1     -20.632  65.793  25.239  1.00  0.00     0.067 C 
HETATM   23  C17 UNL     1     -21.126  65.545  26.665  1.00  0.00     0.240 C 
HETATM   24  H9  UNL     1     -22.535  64.190  26.035  1.00  0.00     0.280 HD
BRANCH  21  25
HETATM   25  C10 UNL     1     -18.884  64.858  23.575  1.00  0.00    -0.030 A 
HETATM   26  C11 UNL     1     -17.966  63.864  23.184  1.00  0.00     0.012 A 
HETATM   27  C12 UNL     1     -17.106  64.079  22.102  1.00  0.00     0.001 A 
HETATM   28  C13 UNL     1     -17.147  65.287  21.403  1.00  0.00     0.000 A 
HETATM   29  C14 UNL     1     -18.046  66.284  21.787  1.00  0.00     0.001 A 
HETATM   30  C15 UNL     1     -18.907  66.076  22.868  1.00  0.00     0.012 A 
ENDBRANCH  21  25
ENDBRANCH  17  18
ENDBRANCH  16  17
ENDBRANCH   1  16
TORSDOF 6
ENDMDL
MODEL 7
REMARK VINA RESULT:      -9.0      1.833      2.800
REMARK  6 active torsions:
REMARK  status: ('A' for Active; 'I' for Inactive)
REMARK    1  A    between atoms: N2_6  and  C3_7 
REMARK    2  A    between atoms: C3_7  and  C4_8 
REMARK    3  A    between atoms: C4_8  and  C5_9 
REMARK    4  A    between atoms: C5_9  and  C6_10 
REMARK    5  A    between atoms: C6_10  and  N3_11 
REMARK    6  A    between atoms: C9_14  and  C10_15 
ROOT
HETATM    1  C4  UNL     1     -22.533  63.800  24.947  1.00  0.00     0.022 C 
ENDROOT
BRANCH   1   2
HETATM    2  C3  UNL     1     -23.044  64.930  25.849  1.00  0.00     0.134 C 
BRANCH   2   3
HETATM    3  N2  UNL     1     -24.517  64.858  25.987  1.00  0.00    -0.297 N 
HETATM    4  C2  UNL     1     -25.048  64.061  26.974  1.00  0.00     0.352 A 
HETATM    5  N1  UNL     1     -26.390  63.944  27.120  1.00  0.00    -0.153 NA
HETATM    6  O2  UNL     1     -24.301  63.423  27.764  1.00  0.00    -0.244 OA
HETATM    7  C1  UNL     1     -27.259  64.606  26.327  1.00  0.00     0.286 A 
HETATM    8  O1  UNL     1     -28.495  64.445  26.511  1.00  0.00    -0.265 OA
HETATM    9  C23 UNL     1     -26.774  65.464  25.327  1.00  0.00     0.099 A 
HETATM   10  C18 UNL     1     -25.366  65.593  25.176  1.00  0.00     0.057 A 
HETATM   11  C22 UNL     1     -27.646  66.197  24.489  1.00  0.00     0.134 A 
HETATM   12  C19 UNL     1     -24.879  66.493  24.194  1.00  0.00     0.031 A 
HETATM   13  C20 UNL     1     -25.756  67.210  23.381  1.00  0.00     0.005 A 
HETATM   14  C21 UNL     1     -27.131  67.059  23.523  1.00  0.00     0.043 A 
HETATM   15  F1  UNL     1     -28.995  66.090  24.602  1.00  0.00    -0.205 F 
ENDBRANCH   2   3
ENDBRANCH   1   2
BRANCH   1  16
HETATM   16  C5  UNL     1     -21.000  63.812  24.862  1.00  0.00     0.029 C 
BRANCH  16  17
HETATM   17  C6  UNL     1     -20.462  63.300  23.508  1.00  0.00     0.235 C 
BRANCH  17  18
HETATM   18  N3  UNL     1     -19.300  64.061  22.982  1.00  0.00    -0.068 N 
HETATM   19  C7  UNL     1     -19.298  64.104  21.498  1.00  0.00     0.262 C 
HETATM   20  C8  UNL     1     -17.990  64.582  20.914  1.00  0.00     0.008 C 
HETATM   21  C9  UNL     1     -16.846  64.632  21.618  1.00  0.00    -0.049 C 
HETATM   22  C16 UNL     1     -16.848  64.309  23.093  1.00  0.00     0.067 C 
HETATM   23  C17 UNL     1     -18.051  63.447  23.479  1.00  0.00     0.240 C 
HETATM   24  H9  UNL     1     -19.342  65.039  23.352  1.00  0.00     0.280 HD
BRANCH  21  25
HETATM   25  C10 UNL     1     -15.580  65.076  20.971  1.00  0.00    -0.030 A 
HETATM   26  C11 UNL     1     -14.902  66.226  21.423  1.00  0.00     0.012 A 
HETATM   27  C12 UNL     1     -13.720  66.642  20.803  1.00  0.00     0.001 A 
HETATM   28  C13 UNL     1     -13.204  65.922  19.724  1.00  0.00     0.000 A 
HETATM   29  C14 UNL     1     -13.870  64.787  19.261  1.00  0.00     0.001 A 
HETATM   30  C15 UNL     1     -15.053  64.365  19.875  1.00  0.00     0.012 A 
ENDBRANCH  21  25
ENDBRANCH  17  18
ENDBRANCH  16  17
ENDBRANCH   1  16
TORSDOF 6
ENDMDL
MODEL 8
REMARK VINA RESULT:      -8.5      3.304      8.123
REMARK  6 active torsions:
REMARK  status: ('A' for Active; 'I' for Inactive)
REMARK    1  A    between atoms: N2_6  and  C3_7 
REMARK    2  A    between atoms: C3_7  and  C4_8 
REMARK    3  A    between atoms: C4_8  and  C5_9 
REMARK    4  A    between atoms: C5_9  and  C6_10 
REMARK    5  A    between atoms: C6_10  and  N3_11 
REMARK    6  A    between atoms: C9_14  and  C10_15 
ROOT
HETATM    1  C4  UNL     1     -18.926  67.426  25.210  1.00  0.00     0.022 C 
ENDROOT
BRANCH   1   2
HETATM    2  C3  UNL     1     -18.022  66.207  24.990  1.00  0.00     0.134 C 
BRANCH   2   3
HETATM    3  N2  UNL     1     -18.479  65.426  23.818  1.00  0.00    -0.297 N 
HETATM    4  C2  UNL     1     -18.065  65.813  22.566  1.00  0.00     0.352 A 
HETATM    5  N1  UNL     1     -18.479  65.144  21.463  1.00  0.00    -0.153 NA
HETATM    6  O2  UNL     1     -17.289  66.796  22.415  1.00  0.00    -0.244 OA
HETATM    7  C1  UNL     1     -19.295  64.071  21.538  1.00  0.00     0.286 A 
HETATM    8  O1  UNL     1     -19.650  63.501  20.473  1.00  0.00    -0.265 OA
HETATM    9  C23 UNL     1     -19.721  63.607  22.793  1.00  0.00     0.099 A 
HETATM   10  C18 UNL     1     -19.281  64.304  23.953  1.00  0.00     0.057 A 
HETATM   11  C22 UNL     1     -20.554  62.473  22.922  1.00  0.00     0.134 A 
HETATM   12  C19 UNL     1     -19.678  63.807  25.220  1.00  0.00     0.031 A 
HETATM   13  C20 UNL     1     -20.497  62.684  25.326  1.00  0.00     0.005 A 
HETATM   14  C21 UNL     1     -20.938  62.024  24.185  1.00  0.00     0.043 A 
HETATM   15  F1  UNL     1     -20.998  61.790  21.835  1.00  0.00    -0.205 F 
ENDBRANCH   2   3
ENDBRANCH   1   2
BRANCH   1  16
HETATM   16  C5  UNL     1     -20.224  67.306  24.399  1.00  0.00     0.029 C 
BRANCH  16  17
HETATM   17  C6  UNL     1     -21.492  67.563  25.241  1.00  0.00     0.235 C 
BRANCH  17  18
HETATM   18  N3  UNL     1     -22.234  66.335  25.626  1.00  0.00    -0.068 N 
HETATM   19  C7  UNL     1     -23.629  66.353  25.120  1.00  0.00     0.262 C 
HETATM   20  C8  UNL     1     -24.507  65.295  25.743  1.00  0.00     0.008 C 
HETATM   21  C9  UNL     1     -24.179  64.638  26.870  1.00  0.00    -0.049 C 
HETATM   22  C16 UNL     1     -22.831  64.859  27.512  1.00  0.00     0.067 C 
HETATM   23  C17 UNL     1     -22.224  66.201  27.098  1.00  0.00     0.240 C 
HETATM   24  H9  UNL     1     -21.736  65.503  25.229  1.00  0.00     0.280 HD
BRANCH  21  25
HETATM   25  C10 UNL     1     -25.109  63.633  27.455  1.00  0.00    -0.030 A 
HETATM   26  C11 UNL     1     -26.499  63.858  27.471  1.00  0.00     0.012 A 
HETATM   27  C12 UNL     1     -27.365  62.914  28.033  1.00  0.00     0.001 A 
HETATM   28  C13 UNL     1     -26.854  61.740  28.590  1.00  0.00     0.000 A 
HETATM   29  C14 UNL     1     -25.478  61.508  28.589  1.00  0.00     0.001 A 
HETATM   30  C15 UNL     1     -24.607  62.448  28.030  1.00  0.00     0.012 A 
ENDBRANCH  21  25
ENDBRANCH  17  18
ENDBRANCH  16  17
ENDBRANCH   1  16
TORSDOF 6
ENDMDL
MODEL 9
REMARK VINA RESULT:      -8.3      2.000      3.249
REMARK  6 active torsions:
REMARK  status: ('A' for Active; 'I' for Inactive)
REMARK    1  A    between atoms: N2_6  and  C3_7 
REMARK    2  A    between atoms: C3_7  and  C4_8 
REMARK    3  A    between atoms: C4_8  and  C5_9 
REMARK    4  A    between atoms: C5_9  and  C6_10 
REMARK    5  A    between atoms: C6_10  and  N3_11 
REMARK    6  A    between atoms: C9_14  and  C10_15 
ROOT
HETATM    1  C4  UNL     1     -21.749  65.360  25.249  1.00  0.00     0.022 C 
ENDROOT
BRANCH   1   2
HETATM    2  C3  UNL     1     -22.692  64.245  24.781  1.00  0.00     0.134 C 
BRANCH   2   3
HETATM    3  N2  UNL     1     -23.986  64.326  25.496  1.00  0.00    -0.297 N 
HETATM    4  C2  UNL     1     -24.126  63.648  26.684  1.00  0.00     0.352 A 
HETATM    5  N1  UNL     1     -25.300  63.672  27.359  1.00  0.00    -0.153 NA
HETATM    6  O2  UNL     1     -23.166  62.992  27.172  1.00  0.00    -0.244 OA
HETATM    7  C1  UNL     1     -26.371  64.364  26.914  1.00  0.00     0.286 A 
HETATM    8  O1  UNL     1     -27.435  64.336  27.587  1.00  0.00    -0.265 OA
HETATM    9  C23 UNL     1     -26.275  65.106  25.726  1.00  0.00     0.099 A 
HETATM   10  C18 UNL     1     -25.041  65.087  25.019  1.00  0.00     0.057 A 
HETATM   11  C22 UNL     1     -27.361  65.866  25.235  1.00  0.00     0.134 A 
HETATM   12  C19 UNL     1     -24.935  65.872  23.843  1.00  0.00     0.031 A 
HETATM   13  C20 UNL     1     -26.016  66.618  23.377  1.00  0.00     0.005 A 
HETATM   14  C21 UNL     1     -27.225  66.611  24.065  1.00  0.00     0.043 A 
HETATM   15  F1  UNL     1     -28.555  65.898  25.882  1.00  0.00    -0.205 F 
ENDBRANCH   2   3
ENDBRANCH   1   2
BRANCH   1  16
HETATM   16  C5  UNL     1     -20.303  65.080  24.812  1.00  0.00     0.029 C 
BRANCH  16  17
HETATM   17  C6  UNL     1     -20.171  63.833  23.912  1.00  0.00     0.235 C 
BRANCH  17  18
HETATM   18  N3  UNL     1     -18.961  63.824  23.050  1.00  0.00    -0.068 N 
HETATM   19  C7  UNL     1     -17.719  63.990  23.845  1.00  0.00     0.262 C 
HETATM   20  C8  UNL     1     -16.505  64.303  23.003  1.00  0.00     0.008 C 
HETATM   21  C9  UNL     1     -16.584  64.728  21.729  1.00  0.00    -0.049 C 
HETATM   22  C16 UNL     1     -17.923  64.805  21.037  1.00  0.00     0.067 C 
HETATM   23  C17 UNL     1     -19.072  64.900  22.043  1.00  0.00     0.240 C 
HETATM   24  H9  UNL     1     -18.920  62.912  22.537  1.00  0.00     0.280 HD
BRANCH  21  25
HETATM   25  C10 UNL     1     -15.349  65.059  20.966  1.00  0.00    -0.030 A 
HETATM   26  C11 UNL     1     -14.874  64.201  19.954  1.00  0.00     0.012 A 
HETATM   27  C12 UNL     1     -13.707  64.513  19.249  1.00  0.00     0.001 A 
HETATM   28  C13 UNL     1     -12.999  65.679  19.547  1.00  0.00     0.000 A 
HETATM   29  C14 UNL     1     -13.454  66.533  20.554  1.00  0.00     0.001 A 
HETATM   30  C15 UNL     1     -14.619  66.226  21.263  1.00  0.00     0.012 A 
ENDBRANCH  21  25
ENDBRANCH  17  18
ENDBRANCH  16  17
ENDBRANCH   1  16
TORSDOF 6
ENDMDL
